#======================================================================

# CRYSTAL DATA

#----------------------------------------------------------------------

data_VESTA_phase_1


_chemical_name_common                  ''
_cell_length_a                         7.35500
_cell_length_b                         9.37100
_cell_length_c                         6.70000
_cell_angle_alpha                      90
_cell_angle_beta                       90
_cell_angle_gamma                      90
_space_group_name_H-M_alt              'P 1'
_space_group_IT_number                 1

loop_
_space_group_symop_operation_xyz
   'x, y, z'

loop_
   _atom_site_label
   _atom_site_occupancy
   _atom_site_fract_x
   _atom_site_fract_y
   _atom_site_fract_z
   _atom_site_adp_type
   _atom_site_B_iso_or_equiv
   _atom_site_type_symbol
   C1         1.0     0.555280      0.642740      0.497440     Biso  1.000000 C
   C2         1.0     0.444720      0.357260      0.502560     Biso  1.000000 C
   C3         1.0     0.421420      0.595210      0.365050     Biso  1.000000 C
   C4         1.0     0.578580      0.404790      0.634950     Biso  1.000000 C
   C5         1.0     0.634250      0.547380      0.632470     Biso  1.000000 C
   C6         1.0     0.365750      0.452620      0.367530     Biso  1.000000 C
   H1         1.0     0.597990      0.754170      0.495160     Biso  1.000000 H
   H2         1.0     0.402010      0.245830      0.504840     Biso  1.000000 H
   H3         1.0     0.360510      0.669050      0.258790     Biso  1.000000 H
   H4         1.0     0.639490      0.330950      0.741210     Biso  1.000000 H
   H5         1.0     0.739410      0.583060      0.735850     Biso  1.000000 H
   H6         1.0     0.260590      0.416940      0.264150     Biso  1.000000 H
