#======================================================================

# CRYSTAL DATA

#----------------------------------------------------------------------

data_VESTA_phase_1


_chemical_name_common                  'C6 H6                                 '
_cell_length_a                         7.49925
_cell_length_b                         9.55479
_cell_length_c                         6.83141
_cell_angle_alpha                      90
_cell_angle_beta                       90
_cell_angle_gamma                      90
_space_group_name_H-M_alt              'P 1'
_space_group_IT_number                 1

loop_
_space_group_symop_operation_xyz
   'x, y, z'

loop_
   _atom_site_label
   _atom_site_occupancy
   _atom_site_fract_x
   _atom_site_fract_y
   _atom_site_fract_z
   _atom_site_adp_type
   _atom_site_B_iso_or_equiv
   _atom_site_type_symbol
   C1         1.0     0.945952      0.140081      0.002304     Biso  1.000000 C
   C2         1.0     0.054048      0.859919     -0.002304     Biso  1.000000 C
   C3         1.0     0.554048      0.859919      0.502304     Biso  1.000000 C
   C4         1.0     0.445952      0.140081      0.497696     Biso  1.000000 C
   C5         1.0     0.054048      0.640081      0.497696     Biso  1.000000 C
   C6         1.0     0.945952      0.359919      0.502304     Biso  1.000000 C
   C7         1.0     0.445952      0.359919     -0.002304     Biso  1.000000 C
   C8         1.0     0.554048      0.640081      0.002304     Biso  1.000000 C
   C9         1.0     0.077082      0.093431      0.132474     Biso  1.000000 C
   C10        1.0     0.922918      0.906569      0.867526     Biso  1.000000 C
   C11        1.0     0.422918      0.906569      0.632474     Biso  1.000000 C
   C12        1.0     0.577082      0.093431      0.367526     Biso  1.000000 C
   C13        1.0     0.922918      0.593431      0.367526     Biso  1.000000 C
   C14        1.0     0.077082      0.406569      0.632474     Biso  1.000000 C
   C15        1.0     0.577082      0.406569      0.867526     Biso  1.000000 C
   C16        1.0     0.422918      0.593431      0.132474     Biso  1.000000 C
   C17        1.0     0.868441      0.046537      0.869778     Biso  1.000000 C
   C18        1.0     0.131559      0.953463      0.130222     Biso  1.000000 C
   C19        1.0     0.631559      0.953463      0.369778     Biso  1.000000 C
   C20        1.0     0.368441      0.046537      0.630222     Biso  1.000000 C
   C21        1.0     0.131559      0.546537      0.630222     Biso  1.000000 C
   C22        1.0     0.868441      0.453463      0.369778     Biso  1.000000 C
   C23        1.0     0.368441      0.453463      0.130222     Biso  1.000000 C
   C24        1.0     0.631559      0.546537      0.869778     Biso  1.000000 C
   H1         1.0     0.904239      0.249487      0.004317     Biso  1.000000 H
   H2         1.0     0.095761      0.750513     -0.004317     Biso  1.000000 H
   H3         1.0     0.595761      0.750513      0.504317     Biso  1.000000 H
   H4         1.0     0.404239      0.249487      0.495683     Biso  1.000000 H
   H5         1.0     0.095761      0.749487      0.495683     Biso  1.000000 H
   H6         1.0     0.904239      0.250513      0.504317     Biso  1.000000 H
   H7         1.0     0.404239      0.250513     -0.004317     Biso  1.000000 H
   H8         1.0     0.595761      0.749487      0.004317     Biso  1.000000 H
   H9         1.0     0.136760      0.165913      0.236836     Biso  1.000000 H
   H10        1.0     0.863240      0.834087      0.763164     Biso  1.000000 H
   H11        1.0     0.363240      0.834087      0.736836     Biso  1.000000 H
   H12        1.0     0.636760      0.165913      0.263164     Biso  1.000000 H
   H13        1.0     0.863240      0.665913      0.263164     Biso  1.000000 H
   H14        1.0     0.136760      0.334087      0.736836     Biso  1.000000 H
   H15        1.0     0.636760      0.334087      0.763164     Biso  1.000000 H
   H16        1.0     0.363240      0.665913      0.236836     Biso  1.000000 H
   H17        1.0     0.765374      0.081691      0.768311     Biso  1.000000 H
   H18        1.0     0.234626      0.918309      0.231689     Biso  1.000000 H
   H19        1.0     0.734626      0.918309      0.268311     Biso  1.000000 H
   H20        1.0     0.265374      0.081691      0.731689     Biso  1.000000 H
   H21        1.0     0.234626      0.581691      0.731689     Biso  1.000000 H
   H22        1.0     0.765374      0.418309      0.268311     Biso  1.000000 H
   H23        1.0     0.265374      0.418309      0.231689     Biso  1.000000 H
   H24        1.0     0.734626      0.581691      0.768311     Biso  1.000000 H
