#======================================================================

# CRYSTAL DATA

#----------------------------------------------------------------------

data_VESTA_phase_1


_chemical_name_common                  'C6 H6                                 '
_cell_length_a                         7.45179
_cell_length_b                         9.49432
_cell_length_c                         6.78817
_cell_angle_alpha                      90
_cell_angle_beta                       90
_cell_angle_gamma                      90
_space_group_name_H-M_alt              'P 1'
_space_group_IT_number                 1

loop_
_space_group_symop_operation_xyz
   'x, y, z'

loop_
   _atom_site_label
   _atom_site_occupancy
   _atom_site_fract_x
   _atom_site_fract_y
   _atom_site_fract_z
   _atom_site_adp_type
   _atom_site_B_iso_or_equiv
   _atom_site_type_symbol
   C1         1.0     0.945535      0.140943      0.002398     Biso  1.000000 C
   C2         1.0     0.054465      0.859057     -0.002398     Biso  1.000000 C
   C3         1.0     0.554465      0.859057      0.502398     Biso  1.000000 C
   C4         1.0     0.445535      0.140943      0.497602     Biso  1.000000 C
   C5         1.0     0.054465      0.640943      0.497602     Biso  1.000000 C
   C6         1.0     0.945535      0.359057      0.502398     Biso  1.000000 C
   C7         1.0     0.445535      0.359057     -0.002398     Biso  1.000000 C
   C8         1.0     0.554465      0.640943      0.002398     Biso  1.000000 C
   C9         1.0     0.077589      0.094005      0.133264     Biso  1.000000 C
   C10        1.0     0.922411      0.905995      0.866736     Biso  1.000000 C
   C11        1.0     0.422411      0.905995      0.633264     Biso  1.000000 C
   C12        1.0     0.577589      0.094005      0.366736     Biso  1.000000 C
   C13        1.0     0.922411      0.594005      0.366736     Biso  1.000000 C
   C14        1.0     0.077589      0.405995      0.633264     Biso  1.000000 C
   C15        1.0     0.577589      0.405995      0.866736     Biso  1.000000 C
   C16        1.0     0.422411      0.594005      0.133264     Biso  1.000000 C
   C17        1.0     0.867585      0.046817      0.868997     Biso  1.000000 C
   C18        1.0     0.132415      0.953183      0.131003     Biso  1.000000 C
   C19        1.0     0.632415      0.953183      0.368997     Biso  1.000000 C
   C20        1.0     0.367585      0.046817      0.631003     Biso  1.000000 C
   C21        1.0     0.132415      0.546817      0.631003     Biso  1.000000 C
   C22        1.0     0.867585      0.453183      0.368997     Biso  1.000000 C
   C23        1.0     0.367585      0.453183      0.131003     Biso  1.000000 C
   C24        1.0     0.632415      0.546817      0.868997     Biso  1.000000 C
   H1         1.0     0.903523      0.251018      0.004400     Biso  1.000000 H
   H2         1.0     0.096477      0.748982     -0.004400     Biso  1.000000 H
   H3         1.0     0.596477      0.748982      0.504400     Biso  1.000000 H
   H4         1.0     0.403523      0.251018      0.495600     Biso  1.000000 H
   H5         1.0     0.096477      0.751018      0.495600     Biso  1.000000 H
   H6         1.0     0.903523      0.248982      0.504400     Biso  1.000000 H
   H7         1.0     0.403523      0.248982     -0.004400     Biso  1.000000 H
   H8         1.0     0.596477      0.751018      0.004400     Biso  1.000000 H
   H9         1.0     0.137653      0.166911      0.238307     Biso  1.000000 H
   H10        1.0     0.862347      0.833089      0.761693     Biso  1.000000 H
   H11        1.0     0.362347      0.833089      0.738307     Biso  1.000000 H
   H12        1.0     0.637653      0.166911      0.261693     Biso  1.000000 H
   H13        1.0     0.862347      0.666911      0.261693     Biso  1.000000 H
   H14        1.0     0.137653      0.333089      0.738307     Biso  1.000000 H
   H15        1.0     0.637653      0.333089      0.761693     Biso  1.000000 H
   H16        1.0     0.362347      0.666911      0.238307     Biso  1.000000 H
   H17        1.0     0.763825      0.082160      0.766963     Biso  1.000000 H
   H18        1.0     0.236175      0.917840      0.233037     Biso  1.000000 H
   H19        1.0     0.736175      0.917840      0.266963     Biso  1.000000 H
   H20        1.0     0.263825      0.082160      0.733037     Biso  1.000000 H
   H21        1.0     0.236175      0.582160      0.733037     Biso  1.000000 H
   H22        1.0     0.763825      0.417840      0.266963     Biso  1.000000 H
   H23        1.0     0.263825      0.417840      0.233037     Biso  1.000000 H
   H24        1.0     0.736175      0.582160      0.766963     Biso  1.000000 H
