#======================================================================

# CRYSTAL DATA

#----------------------------------------------------------------------

data_VESTA_phase_1


_chemical_name_common                  'C6 H6                                 '
_cell_length_a                         7.40371
_cell_length_b                         9.43306
_cell_length_c                         6.74437
_cell_angle_alpha                      90
_cell_angle_beta                       90
_cell_angle_gamma                      90
_space_group_name_H-M_alt              'P 1'
_space_group_IT_number                 1

loop_
_space_group_symop_operation_xyz
   'x, y, z'

loop_
   _atom_site_label
   _atom_site_occupancy
   _atom_site_fract_x
   _atom_site_fract_y
   _atom_site_fract_z
   _atom_site_adp_type
   _atom_site_B_iso_or_equiv
   _atom_site_type_symbol
   C1         1.0     0.945350      0.141901      0.002327     Biso  1.000000 C
   C2         1.0     0.054650      0.858099     -0.002327     Biso  1.000000 C
   C3         1.0     0.554650      0.858099      0.502327     Biso  1.000000 C
   C4         1.0     0.445350      0.141901      0.497673     Biso  1.000000 C
   C5         1.0     0.054650      0.641901      0.497673     Biso  1.000000 C
   C6         1.0     0.945350      0.358099      0.502327     Biso  1.000000 C
   C7         1.0     0.445350      0.358099     -0.002327     Biso  1.000000 C
   C8         1.0     0.554650      0.641901      0.002327     Biso  1.000000 C
   C9         1.0     0.078037      0.094615      0.134173     Biso  1.000000 C
   C10        1.0     0.921964      0.905385      0.865827     Biso  1.000000 C
   C11        1.0     0.421963      0.905385      0.634173     Biso  1.000000 C
   C12        1.0     0.578036      0.094615      0.365827     Biso  1.000000 C
   C13        1.0     0.921964      0.594615      0.365827     Biso  1.000000 C
   C14        1.0     0.078037      0.405385      0.634173     Biso  1.000000 C
   C15        1.0     0.578036      0.405385      0.865827     Biso  1.000000 C
   C16        1.0     0.421963      0.594615      0.134173     Biso  1.000000 C
   C17        1.0     0.866823      0.047131      0.868240     Biso  1.000000 C
   C18        1.0     0.133177      0.952869      0.131760     Biso  1.000000 C
   C19        1.0     0.633177      0.952869      0.368240     Biso  1.000000 C
   C20        1.0     0.366823      0.047131      0.631760     Biso  1.000000 C
   C21        1.0     0.133177      0.547131      0.631760     Biso  1.000000 C
   C22        1.0     0.866823      0.452869      0.368240     Biso  1.000000 C
   C23        1.0     0.366823      0.452869      0.131760     Biso  1.000000 C
   C24        1.0     0.633177      0.547131      0.868240     Biso  1.000000 C
   H1         1.0     0.903247      0.252737      0.004286     Biso  1.000000 H
   H2         1.0     0.096753      0.747263     -0.004286     Biso  1.000000 H
   H3         1.0     0.596753      0.747263      0.504286     Biso  1.000000 H
   H4         1.0     0.403247      0.252737      0.495714     Biso  1.000000 H
   H5         1.0     0.096753      0.752737      0.495714     Biso  1.000000 H
   H6         1.0     0.903247      0.247263      0.504286     Biso  1.000000 H
   H7         1.0     0.403247      0.247263     -0.004286     Biso  1.000000 H
   H8         1.0     0.596753      0.752737      0.004286     Biso  1.000000 H
   H9         1.0     0.138347      0.167929      0.240042     Biso  1.000000 H
   H10        1.0     0.861653      0.832071      0.759958     Biso  1.000000 H
   H11        1.0     0.361653      0.832071      0.740042     Biso  1.000000 H
   H12        1.0     0.638347      0.167929      0.259958     Biso  1.000000 H
   H13        1.0     0.861653      0.667929      0.259958     Biso  1.000000 H
   H14        1.0     0.138347      0.332071      0.740042     Biso  1.000000 H
   H15        1.0     0.638347      0.332071      0.759958     Biso  1.000000 H
   H16        1.0     0.361653      0.667929      0.240042     Biso  1.000000 H
   H17        1.0     0.762314      0.082636      0.765582     Biso  1.000000 H
   H18        1.0     0.237686      0.917364      0.234418     Biso  1.000000 H
   H19        1.0     0.737686      0.917364      0.265582     Biso  1.000000 H
   H20        1.0     0.262314      0.082636      0.734418     Biso  1.000000 H
   H21        1.0     0.237686      0.582636      0.734418     Biso  1.000000 H
   H22        1.0     0.762314      0.417364      0.265582     Biso  1.000000 H
   H23        1.0     0.262314      0.417364      0.234418     Biso  1.000000 H
   H24        1.0     0.737686      0.582636      0.765582     Biso  1.000000 H
