#======================================================================

# CRYSTAL DATA

#----------------------------------------------------------------------

data_VESTA_phase_1


_chemical_name_common                  'C6 H6                                 '
_cell_length_a                         7.20486
_cell_length_b                         9.17970
_cell_length_c                         6.56323
_cell_angle_alpha                      90
_cell_angle_beta                       90
_cell_angle_gamma                      90
_space_group_name_H-M_alt              'P 1'
_space_group_IT_number                 1

loop_
_space_group_symop_operation_xyz
   'x, y, z'

loop_
   _atom_site_label
   _atom_site_occupancy
   _atom_site_fract_x
   _atom_site_fract_y
   _atom_site_fract_z
   _atom_site_adp_type
   _atom_site_B_iso_or_equiv
   _atom_site_type_symbol
   C1         1.0     0.943207      0.145584      0.003093     Biso  1.000000 C
   C2         1.0     0.056793      0.854416     -0.003093     Biso  1.000000 C
   C3         1.0     0.556793      0.854416      0.503093     Biso  1.000000 C
   C4         1.0     0.443207      0.145584      0.496907     Biso  1.000000 C
   C5         1.0     0.056793      0.645584      0.496907     Biso  1.000000 C
   C6         1.0     0.943207      0.354416      0.503093     Biso  1.000000 C
   C7         1.0     0.443207      0.354416     -0.003093     Biso  1.000000 C
   C8         1.0     0.556793      0.645584      0.003093     Biso  1.000000 C
   C9         1.0     0.080230      0.097135      0.137578     Biso  1.000000 C
   C10        1.0     0.919770      0.902865      0.862422     Biso  1.000000 C
   C11        1.0     0.419770      0.902865      0.637578     Biso  1.000000 C
   C12        1.0     0.580230      0.097135      0.362422     Biso  1.000000 C
   C13        1.0     0.919770      0.597135      0.362422     Biso  1.000000 C
   C14        1.0     0.080230      0.402865      0.637578     Biso  1.000000 C
   C15        1.0     0.580230      0.402865      0.862422     Biso  1.000000 C
   C16        1.0     0.419770      0.597135      0.137578     Biso  1.000000 C
   C17        1.0     0.862597      0.048268      0.865366     Biso  1.000000 C
   C18        1.0     0.137403      0.951732      0.134634     Biso  1.000000 C
   C19        1.0     0.637403      0.951732      0.365366     Biso  1.000000 C
   C20        1.0     0.362597      0.048268      0.634634     Biso  1.000000 C
   C21        1.0     0.137403      0.548268      0.634634     Biso  1.000000 C
   C22        1.0     0.862597      0.451732      0.365366     Biso  1.000000 C
   C23        1.0     0.362597      0.451732      0.134634     Biso  1.000000 C
   C24        1.0     0.637403      0.548268      0.865366     Biso  1.000000 C
   H1         1.0     0.899573      0.259290      0.005605     Biso  1.000000 H
   H2         1.0     0.100427      0.740710     -0.005605     Biso  1.000000 H
   H3         1.0     0.600427      0.740710      0.505605     Biso  1.000000 H
   H4         1.0     0.399573      0.259290      0.494395     Biso  1.000000 H
   H5         1.0     0.100427      0.759290      0.494395     Biso  1.000000 H
   H6         1.0     0.899573      0.240710      0.505605     Biso  1.000000 H
   H7         1.0     0.399573      0.240710     -0.005605     Biso  1.000000 H
   H8         1.0     0.600427      0.759290      0.005605     Biso  1.000000 H
   H9         1.0     0.142214      0.172324      0.246289     Biso  1.000000 H
   H10        1.0     0.857786      0.827676      0.753711     Biso  1.000000 H
   H11        1.0     0.357786      0.827676      0.746289     Biso  1.000000 H
   H12        1.0     0.642214      0.172324      0.253711     Biso  1.000000 H
   H13        1.0     0.857786      0.672324      0.253711     Biso  1.000000 H
   H14        1.0     0.142214      0.327676      0.746289     Biso  1.000000 H
   H15        1.0     0.642214      0.327676      0.753711     Biso  1.000000 H
   H16        1.0     0.357786      0.672324      0.246289     Biso  1.000000 H
   H17        1.0     0.754648      0.084381      0.760552     Biso  1.000000 H
   H18        1.0     0.245352      0.915619      0.239448     Biso  1.000000 H
   H19        1.0     0.745352      0.915619      0.260552     Biso  1.000000 H
   H20        1.0     0.254648      0.084381      0.739448     Biso  1.000000 H
   H21        1.0     0.245352      0.584381      0.739448     Biso  1.000000 H
   H22        1.0     0.754648      0.415619      0.260552     Biso  1.000000 H
   H23        1.0     0.254648      0.415619      0.239448     Biso  1.000000 H
   H24        1.0     0.745352      0.584381      0.760552     Biso  1.000000 H
