#======================================================================

# CRYSTAL DATA

#----------------------------------------------------------------------

data_VESTA_phase_1


_chemical_name_common                  'C6 H6                                 '
_cell_length_a                         7.10117
_cell_length_b                         9.04760
_cell_length_c                         6.46878
_cell_angle_alpha                      90
_cell_angle_beta                       90
_cell_angle_gamma                      90
_space_group_name_H-M_alt              'P 1'
_space_group_IT_number                 1

loop_
_space_group_symop_operation_xyz
   'x, y, z'

loop_
   _atom_site_label
   _atom_site_occupancy
   _atom_site_fract_x
   _atom_site_fract_y
   _atom_site_fract_z
   _atom_site_adp_type
   _atom_site_B_iso_or_equiv
   _atom_site_type_symbol
   C1         1.0     0.942350      0.147608      0.003174     Biso  1.000000 C
   C2         1.0     0.057650      0.852392     -0.003174     Biso  1.000000 C
   C3         1.0     0.557650      0.852392      0.503174     Biso  1.000000 C
   C4         1.0     0.442350      0.147608      0.496826     Biso  1.000000 C
   C5         1.0     0.057650      0.647608      0.496826     Biso  1.000000 C
   C6         1.0     0.942350      0.352392      0.503174     Biso  1.000000 C
   C7         1.0     0.442350      0.352392     -0.003174     Biso  1.000000 C
   C8         1.0     0.557650      0.647608      0.003174     Biso  1.000000 C
   C9         1.0     0.081284      0.098394      0.139534     Biso  1.000000 C
   C10        1.0     0.918716      0.901606      0.860466     Biso  1.000000 C
   C11        1.0     0.418716      0.901606      0.639534     Biso  1.000000 C
   C12        1.0     0.581284      0.098394      0.360466     Biso  1.000000 C
   C13        1.0     0.918716      0.598394      0.360466     Biso  1.000000 C
   C14        1.0     0.081284      0.401606      0.639534     Biso  1.000000 C
   C15        1.0     0.581284      0.401606      0.860466     Biso  1.000000 C
   C16        1.0     0.418716      0.598394      0.139534     Biso  1.000000 C
   C17        1.0     0.860517      0.048980      0.863457     Biso  1.000000 C
   C18        1.0     0.139483      0.951020      0.136543     Biso  1.000000 C
   C19        1.0     0.639483      0.951020      0.363457     Biso  1.000000 C
   C20        1.0     0.360517      0.048980      0.636543     Biso  1.000000 C
   C21        1.0     0.139483      0.548980      0.636543     Biso  1.000000 C
   C22        1.0     0.860517      0.451020      0.363457     Biso  1.000000 C
   C23        1.0     0.360517      0.451020      0.136543     Biso  1.000000 C
   C24        1.0     0.639483      0.548980      0.863457     Biso  1.000000 C
   H1         1.0     0.898194      0.262915      0.005858     Biso  1.000000 H
   H2         1.0     0.101806      0.737085     -0.005858     Biso  1.000000 H
   H3         1.0     0.601806      0.737085      0.505858     Biso  1.000000 H
   H4         1.0     0.398194      0.262915      0.494142     Biso  1.000000 H
   H5         1.0     0.101806      0.762915      0.494142     Biso  1.000000 H
   H6         1.0     0.898194      0.237085      0.505858     Biso  1.000000 H
   H7         1.0     0.398194      0.237085     -0.005858     Biso  1.000000 H
   H8         1.0     0.601806      0.762915      0.005858     Biso  1.000000 H
   H9         1.0     0.144343      0.174592      0.249603     Biso  1.000000 H
   H10        1.0     0.855657      0.825408      0.750397     Biso  1.000000 H
   H11        1.0     0.355657      0.825408      0.749603     Biso  1.000000 H
   H12        1.0     0.644343      0.174592      0.250397     Biso  1.000000 H
   H13        1.0     0.855657      0.674592      0.250397     Biso  1.000000 H
   H14        1.0     0.144343      0.325408      0.749603     Biso  1.000000 H
   H15        1.0     0.644343      0.325408      0.750397     Biso  1.000000 H
   H16        1.0     0.355657      0.674592      0.249603     Biso  1.000000 H
   H17        1.0     0.751097      0.085539      0.757034     Biso  1.000000 H
   H18        1.0     0.248903      0.914461      0.242966     Biso  1.000000 H
   H19        1.0     0.748903      0.914461      0.257034     Biso  1.000000 H
   H20        1.0     0.251097      0.085539      0.742966     Biso  1.000000 H
   H21        1.0     0.248903      0.585539      0.742966     Biso  1.000000 H
   H22        1.0     0.751097      0.414461      0.257034     Biso  1.000000 H
   H23        1.0     0.251097      0.414461      0.242966     Biso  1.000000 H
   H24        1.0     0.748903      0.585539      0.757034     Biso  1.000000 H
