#======================================================================

# CRYSTAL DATA

#----------------------------------------------------------------------

data_VESTA_phase_1


_chemical_name_common                  'C6 H6                                 '
_cell_length_a                         6.93973
_cell_length_b                         8.84190
_cell_length_c                         6.32171
_cell_angle_alpha                      90
_cell_angle_beta                       90
_cell_angle_gamma                      90
_space_group_name_H-M_alt              'P 1'
_space_group_IT_number                 1

loop_
_space_group_symop_operation_xyz
   'x, y, z'

loop_
   _atom_site_label
   _atom_site_occupancy
   _atom_site_fract_x
   _atom_site_fract_y
   _atom_site_fract_z
   _atom_site_adp_type
   _atom_site_B_iso_or_equiv
   _atom_site_type_symbol
   C1         1.0     0.939554      0.150542      0.004926     Biso  1.000000 C
   C2         1.0     0.060446      0.849458     -0.004926     Biso  1.000000 C
   C3         1.0     0.560446      0.849458      0.504926     Biso  1.000000 C
   C4         1.0     0.439554      0.150542      0.495074     Biso  1.000000 C
   C5         1.0     0.060446      0.650542      0.495074     Biso  1.000000 C
   C6         1.0     0.939554      0.349458      0.504926     Biso  1.000000 C
   C7         1.0     0.439554      0.349458     -0.004926     Biso  1.000000 C
   C8         1.0     0.560446      0.650542      0.004926     Biso  1.000000 C
   C9         1.0     0.083132      0.100497      0.142388     Biso  1.000000 C
   C10        1.0     0.916868      0.899503      0.857612     Biso  1.000000 C
   C11        1.0     0.416868      0.899503      0.642388     Biso  1.000000 C
   C12        1.0     0.583132      0.100497      0.357612     Biso  1.000000 C
   C13        1.0     0.916868      0.600497      0.357612     Biso  1.000000 C
   C14        1.0     0.083132      0.399503      0.642388     Biso  1.000000 C
   C15        1.0     0.583132      0.399503      0.857612     Biso  1.000000 C
   C16        1.0     0.416868      0.600497      0.142388     Biso  1.000000 C
   C17        1.0     0.855479      0.049642      0.862550     Biso  1.000000 C
   C18        1.0     0.144521      0.950358      0.137450     Biso  1.000000 C
   C19        1.0     0.644521      0.950358      0.362550     Biso  1.000000 C
   C20        1.0     0.355479      0.049642      0.637450     Biso  1.000000 C
   C21        1.0     0.144521      0.549642      0.637450     Biso  1.000000 C
   C22        1.0     0.855479      0.450359      0.362550     Biso  1.000000 C
   C23        1.0     0.355479      0.450359      0.137450     Biso  1.000000 C
   C24        1.0     0.644521      0.549642      0.862550     Biso  1.000000 C
   H1         1.0     0.893804      0.268289      0.008792     Biso  1.000000 H
   H2         1.0     0.106196      0.731711     -0.008792     Biso  1.000000 H
   H3         1.0     0.606196      0.731711      0.508792     Biso  1.000000 H
   H4         1.0     0.393804      0.268289      0.491208     Biso  1.000000 H
   H5         1.0     0.106196      0.768289      0.491208     Biso  1.000000 H
   H6         1.0     0.893804      0.231711      0.508792     Biso  1.000000 H
   H7         1.0     0.393804      0.231711     -0.008792     Biso  1.000000 H
   H8         1.0     0.606196      0.768289      0.008792     Biso  1.000000 H
   H9         1.0     0.147313      0.178227      0.255244     Biso  1.000000 H
   H10        1.0     0.852687      0.821773      0.744756     Biso  1.000000 H
   H11        1.0     0.352687      0.821773      0.755244     Biso  1.000000 H
   H12        1.0     0.647313      0.178227      0.244756     Biso  1.000000 H
   H13        1.0     0.852687      0.678227      0.244756     Biso  1.000000 H
   H14        1.0     0.147313      0.321773      0.755244     Biso  1.000000 H
   H15        1.0     0.647313      0.321773      0.744756     Biso  1.000000 H
   H16        1.0     0.352687      0.678227      0.255244     Biso  1.000000 H
   H17        1.0     0.741432      0.086165      0.755945     Biso  1.000000 H
   H18        1.0     0.258568      0.913835      0.244055     Biso  1.000000 H
   H19        1.0     0.758568      0.913835      0.255945     Biso  1.000000 H
   H20        1.0     0.241432      0.086165      0.744055     Biso  1.000000 H
   H21        1.0     0.258568      0.586165      0.744055     Biso  1.000000 H
   H22        1.0     0.741432      0.413835      0.255945     Biso  1.000000 H
   H23        1.0     0.241432      0.413835      0.244055     Biso  1.000000 H
   H24        1.0     0.758568      0.586165      0.755945     Biso  1.000000 H
