#======================================================================

# CRYSTAL DATA

#----------------------------------------------------------------------

data_VESTA_phase_1


_chemical_name_common                  'methane-low                           '
_cell_length_a                         12.08583
_cell_length_b                         8.45365
_cell_length_c                         8.44839
_cell_angle_alpha                      90
_cell_angle_beta                       90
_cell_angle_gamma                      90
_space_group_name_H-M_alt              'P 1'
_space_group_IT_number                 1

loop_
_space_group_symop_operation_xyz
   'x, y, z'

loop_
   _atom_site_label
   _atom_site_occupancy
   _atom_site_fract_x
   _atom_site_fract_y
   _atom_site_fract_z
   _atom_site_adp_type
   _atom_site_B_iso_or_equiv
   _atom_site_type_symbol
   H1         1.0     0.074057      0.778100      0.260957     Biso  1.000000 H
   H2         1.0     0.925943      0.221899      0.739043     Biso  1.000000 H
   H3         1.0     0.925943      0.721900      0.760957     Biso  1.000000 H
   H4         1.0     0.074057      0.278101      0.239043     Biso  1.000000 H
   H5         1.0     0.925943      0.278101      0.239043     Biso  1.000000 H
   H6         1.0     0.074057      0.721900      0.760957     Biso  1.000000 H
   H7         1.0     0.074057      0.221899      0.739043     Biso  1.000000 H
   H8         1.0     0.925943      0.778100      0.260957     Biso  1.000000 H
   H9         1.0     0.574057      0.278101      0.260957     Biso  1.000000 H
   H10        1.0     0.425943      0.721900      0.739043     Biso  1.000000 H
   H11        1.0     0.425943      0.221899      0.760957     Biso  1.000000 H
   H12        1.0     0.574057      0.778100      0.239043     Biso  1.000000 H
   H13        1.0     0.425943      0.778100      0.239043     Biso  1.000000 H
   H14        1.0     0.574057      0.221899      0.760957     Biso  1.000000 H
   H15        1.0     0.574057      0.721900      0.739043     Biso  1.000000 H
   H16        1.0     0.425943      0.278101      0.260957     Biso  1.000000 H
   H17        1.0     0.802132      0.581274      0.932402     Biso  1.000000 H
   H18        1.0     0.197868      0.418726      0.067598     Biso  1.000000 H
   H19        1.0     0.197868      0.918726      0.432402     Biso  1.000000 H
   H20        1.0     0.802132      0.081274      0.567598     Biso  1.000000 H
   H21        1.0     0.197868      0.081274      0.567598     Biso  1.000000 H
   H22        1.0     0.802132      0.918726      0.432402     Biso  1.000000 H
   H23        1.0     0.802132      0.418726      0.067598     Biso  1.000000 H
   H24        1.0     0.197868      0.581274      0.932402     Biso  1.000000 H
   H25        1.0     0.302132      0.081274      0.932402     Biso  1.000000 H
   H26        1.0     0.697868      0.918726      0.067598     Biso  1.000000 H
   H27        1.0     0.697868      0.418726      0.432402     Biso  1.000000 H
   H28        1.0     0.302132      0.581274      0.567598     Biso  1.000000 H
   H29        1.0     0.697868      0.581274      0.567598     Biso  1.000000 H
   H30        1.0     0.302132      0.418726      0.432402     Biso  1.000000 H
   H31        1.0     0.302132      0.918726      0.067598     Biso  1.000000 H
   H32        1.0     0.697868      0.081274      0.932402     Biso  1.000000 H
   H33        1.0     0.697385      0.567684      0.081461     Biso  1.000000 H
   H34        1.0     0.302615      0.432316      0.918539     Biso  1.000000 H
   H35        1.0     0.302615      0.932316      0.581461     Biso  1.000000 H
   H36        1.0     0.697385      0.067684      0.418539     Biso  1.000000 H
   H37        1.0     0.302615      0.067684      0.418539     Biso  1.000000 H
   H38        1.0     0.697385      0.932316      0.581461     Biso  1.000000 H
   H39        1.0     0.697385      0.432316      0.918539     Biso  1.000000 H
   H40        1.0     0.302615      0.567684      0.081461     Biso  1.000000 H
   H41        1.0     0.197385      0.067684      0.081461     Biso  1.000000 H
   H42        1.0     0.802615      0.932316      0.918539     Biso  1.000000 H
   H43        1.0     0.802615      0.432316      0.581461     Biso  1.000000 H
   H44        1.0     0.197385      0.567684      0.418539     Biso  1.000000 H
   H45        1.0     0.802615      0.567684      0.418539     Biso  1.000000 H
   H46        1.0     0.197385      0.432316      0.581461     Biso  1.000000 H
   H47        1.0     0.197385      0.932316      0.918539     Biso  1.000000 H
   H48        1.0     0.802615      0.067684      0.081461     Biso  1.000000 H
   H49        1.0     0.000000      0.603015      0.206511     Biso  1.000000 H
   H50        1.0     0.000000      0.396985      0.793489     Biso  1.000000 H
   H51        1.0     0.000000      0.896985      0.706511     Biso  1.000000 H
   H52        1.0     0.000000      0.103015      0.293489     Biso  1.000000 H
   H53        1.0     0.500000      0.103015      0.206511     Biso  1.000000 H
   H54        1.0     0.500000      0.896985      0.793489     Biso  1.000000 H
   H55        1.0     0.500000      0.396985      0.706511     Biso  1.000000 H
   H56        1.0     0.500000      0.603015      0.293489     Biso  1.000000 H
   H57        1.0     0.000000      0.228552      0.922132     Biso  1.000000 H
   H58        1.0     0.000000      0.771448      0.077868     Biso  1.000000 H
   H59        1.0     0.000000      0.271448      0.422132     Biso  1.000000 H
   H60        1.0     0.000000      0.728552      0.577868     Biso  1.000000 H
   H61        1.0     0.500000      0.728552      0.922132     Biso  1.000000 H
   H62        1.0     0.500000      0.271448      0.077868     Biso  1.000000 H
   H63        1.0     0.500000      0.771448      0.422132     Biso  1.000000 H
   H64        1.0     0.500000      0.228552      0.577868     Biso  1.000000 H
   C1         1.0     0.000000      0.232536      0.298408     Biso  1.000000 C
   C2         1.0     0.000000      0.767464      0.701592     Biso  1.000000 C
   C3         1.0     0.000000      0.267464      0.798408     Biso  1.000000 C
   C4         1.0     0.000000      0.732536      0.201592     Biso  1.000000 C
   C5         1.0     0.500000      0.732536      0.298408     Biso  1.000000 C
   C6         1.0     0.500000      0.267464      0.701592     Biso  1.000000 C
   C7         1.0     0.500000      0.767464      0.798408     Biso  1.000000 C
   C8         1.0     0.500000      0.232536      0.201592     Biso  1.000000 C
   C9         1.0     0.749668      0.500000     -0.000000     Biso  1.000000 C
   C10        1.0     0.250332      0.500000     -0.000000     Biso  1.000000 C
   C11        1.0     0.250332      0.000000      0.500000     Biso  1.000000 C
   C12        1.0     0.749668      0.000000      0.500000     Biso  1.000000 C
   C13        1.0     0.249668     -0.000000     -0.000000     Biso  1.000000 C
   C14        1.0     0.750332      0.000000     -0.000000     Biso  1.000000 C
   C15        1.0     0.750332      0.500000      0.500000     Biso  1.000000 C
   C16        1.0     0.249668      0.500000      0.500000     Biso  1.000000 C
