#======================================================================

# CRYSTAL DATA

#----------------------------------------------------------------------

data_VESTA_phase_1


_chemical_name_common                  'methane-low                           '
_cell_length_a                         12.01214
_cell_length_b                         8.40210
_cell_length_c                         8.39687
_cell_angle_alpha                      90
_cell_angle_beta                       90
_cell_angle_gamma                      90
_space_group_name_H-M_alt              'P 1'
_space_group_IT_number                 1

loop_
_space_group_symop_operation_xyz
   'x, y, z'

loop_
   _atom_site_label
   _atom_site_occupancy
   _atom_site_fract_x
   _atom_site_fract_y
   _atom_site_fract_z
   _atom_site_adp_type
   _atom_site_B_iso_or_equiv
   _atom_site_type_symbol
   H1         1.0     0.074508      0.778372      0.261341     Biso  1.000000 H
   H2         1.0     0.925492      0.221628      0.738659     Biso  1.000000 H
   H3         1.0     0.925492      0.721628      0.761341     Biso  1.000000 H
   H4         1.0     0.074508      0.278372      0.238659     Biso  1.000000 H
   H5         1.0     0.925492      0.278372      0.238659     Biso  1.000000 H
   H6         1.0     0.074508      0.721628      0.761341     Biso  1.000000 H
   H7         1.0     0.074508      0.221628      0.738659     Biso  1.000000 H
   H8         1.0     0.925492      0.778372      0.261341     Biso  1.000000 H
   H9         1.0     0.574508      0.278372      0.261341     Biso  1.000000 H
   H10        1.0     0.425492      0.721628      0.738659     Biso  1.000000 H
   H11        1.0     0.425492      0.221628      0.761341     Biso  1.000000 H
   H12        1.0     0.574508      0.778372      0.238659     Biso  1.000000 H
   H13        1.0     0.425492      0.778372      0.238659     Biso  1.000000 H
   H14        1.0     0.574508      0.221628      0.761341     Biso  1.000000 H
   H15        1.0     0.574508      0.721628      0.738659     Biso  1.000000 H
   H16        1.0     0.425492      0.278372      0.261341     Biso  1.000000 H
   H17        1.0     0.802457      0.581752      0.931989     Biso  1.000000 H
   H18        1.0     0.197543      0.418248      0.068011     Biso  1.000000 H
   H19        1.0     0.197543      0.918248      0.431989     Biso  1.000000 H
   H20        1.0     0.802457      0.081752      0.568011     Biso  1.000000 H
   H21        1.0     0.197543      0.081752      0.568011     Biso  1.000000 H
   H22        1.0     0.802457      0.918248      0.431989     Biso  1.000000 H
   H23        1.0     0.802457      0.418248      0.068011     Biso  1.000000 H
   H24        1.0     0.197543      0.581752      0.931989     Biso  1.000000 H
   H25        1.0     0.302457      0.081752      0.931989     Biso  1.000000 H
   H26        1.0     0.697543      0.918248      0.068011     Biso  1.000000 H
   H27        1.0     0.697543      0.418248      0.431989     Biso  1.000000 H
   H28        1.0     0.302457      0.581752      0.568011     Biso  1.000000 H
   H29        1.0     0.697543      0.581752      0.568011     Biso  1.000000 H
   H30        1.0     0.302457      0.418248      0.431989     Biso  1.000000 H
   H31        1.0     0.302457      0.918248      0.068011     Biso  1.000000 H
   H32        1.0     0.697543      0.081752      0.931989     Biso  1.000000 H
   H33        1.0     0.697071      0.568102      0.081948     Biso  1.000000 H
   H34        1.0     0.302929      0.431898      0.918052     Biso  1.000000 H
   H35        1.0     0.302929      0.931898      0.581948     Biso  1.000000 H
   H36        1.0     0.697071      0.068102      0.418052     Biso  1.000000 H
   H37        1.0     0.302929      0.068102      0.418052     Biso  1.000000 H
   H38        1.0     0.697071      0.931898      0.581948     Biso  1.000000 H
   H39        1.0     0.697071      0.431898      0.918052     Biso  1.000000 H
   H40        1.0     0.302929      0.568102      0.081948     Biso  1.000000 H
   H41        1.0     0.197071      0.068102      0.081948     Biso  1.000000 H
   H42        1.0     0.802929      0.931898      0.918052     Biso  1.000000 H
   H43        1.0     0.802929      0.431898      0.581948     Biso  1.000000 H
   H44        1.0     0.197071      0.568102      0.418052     Biso  1.000000 H
   H45        1.0     0.802929      0.568102      0.418052     Biso  1.000000 H
   H46        1.0     0.197071      0.431898      0.581948     Biso  1.000000 H
   H47        1.0     0.197071      0.931898      0.918052     Biso  1.000000 H
   H48        1.0     0.802929      0.068102      0.081948     Biso  1.000000 H
   H49        1.0    -0.000000      0.602226      0.206565     Biso  1.000000 H
   H50        1.0    -0.000000      0.397774      0.793435     Biso  1.000000 H
   H51        1.0    -0.000000      0.897774      0.706565     Biso  1.000000 H
   H52        1.0    -0.000000      0.102226      0.293435     Biso  1.000000 H
   H53        1.0     0.500000      0.102226      0.206565     Biso  1.000000 H
   H54        1.0     0.500000      0.897774      0.793435     Biso  1.000000 H
   H55        1.0     0.500000      0.397774      0.706565     Biso  1.000000 H
   H56        1.0     0.500000      0.602226      0.293435     Biso  1.000000 H
   H57        1.0    -0.000000      0.228310      0.922855     Biso  1.000000 H
   H58        1.0    -0.000000      0.771690      0.077145     Biso  1.000000 H
   H59        1.0    -0.000000      0.271690      0.422855     Biso  1.000000 H
   H60        1.0    -0.000000      0.728310      0.577145     Biso  1.000000 H
   H61        1.0     0.500000      0.728310      0.922855     Biso  1.000000 H
   H62        1.0     0.500000      0.271690      0.077145     Biso  1.000000 H
   H63        1.0     0.500000      0.771690      0.422855     Biso  1.000000 H
   H64        1.0     0.500000      0.228310      0.577145     Biso  1.000000 H
   C1         1.0    -0.000000      0.232540      0.298460     Biso  1.000000 C
   C2         1.0    -0.000000      0.767460      0.701540     Biso  1.000000 C
   C3         1.0    -0.000000      0.267460      0.798460     Biso  1.000000 C
   C4         1.0    -0.000000      0.732540      0.201540     Biso  1.000000 C
   C5         1.0     0.500000      0.732540      0.298460     Biso  1.000000 C
   C6         1.0     0.500000      0.267460      0.701540     Biso  1.000000 C
   C7         1.0     0.500000      0.767460      0.798460     Biso  1.000000 C
   C8         1.0     0.500000      0.232540      0.201540     Biso  1.000000 C
   C9         1.0     0.749670      0.500000      0.000000     Biso  1.000000 C
   C10        1.0     0.250330      0.500000      0.000000     Biso  1.000000 C
   C11        1.0     0.250330      0.000000      0.500000     Biso  1.000000 C
   C12        1.0     0.749670      0.000000      0.500000     Biso  1.000000 C
   C13        1.0     0.249670      0.000000      0.000000     Biso  1.000000 C
   C14        1.0     0.750330      0.000000      0.000000     Biso  1.000000 C
   C15        1.0     0.750330      0.500000      0.500000     Biso  1.000000 C
   C16        1.0     0.249670      0.500000      0.500000     Biso  1.000000 C
