#======================================================================

# CRYSTAL DATA

#----------------------------------------------------------------------

data_VESTA_phase_1


_chemical_name_common                  'methane-low                           '
_cell_length_a                         11.93752
_cell_length_b                         8.34991
_cell_length_c                         8.34472
_cell_angle_alpha                      90
_cell_angle_beta                       90
_cell_angle_gamma                      90
_space_group_name_H-M_alt              'P 1'
_space_group_IT_number                 1

loop_
_space_group_symop_operation_xyz
   'x, y, z'

loop_
   _atom_site_label
   _atom_site_occupancy
   _atom_site_fract_x
   _atom_site_fract_y
   _atom_site_fract_z
   _atom_site_adp_type
   _atom_site_B_iso_or_equiv
   _atom_site_type_symbol
   H1         1.0     0.074968      0.778657      0.261699     Biso  1.000000 H
   H2         1.0     0.925032      0.221343      0.738301     Biso  1.000000 H
   H3         1.0     0.925032      0.721343      0.761699     Biso  1.000000 H
   H4         1.0     0.074968      0.278657      0.238301     Biso  1.000000 H
   H5         1.0     0.925032      0.278657      0.238301     Biso  1.000000 H
   H6         1.0     0.074968      0.721343      0.761699     Biso  1.000000 H
   H7         1.0     0.074968      0.221343      0.738301     Biso  1.000000 H
   H8         1.0     0.925032      0.778657      0.261699     Biso  1.000000 H
   H9         1.0     0.574968      0.278657      0.261699     Biso  1.000000 H
   H10        1.0     0.425032      0.721343      0.738301     Biso  1.000000 H
   H11        1.0     0.425032      0.221343      0.761699     Biso  1.000000 H
   H12        1.0     0.574968      0.778657      0.238301     Biso  1.000000 H
   H13        1.0     0.425032      0.778657      0.238301     Biso  1.000000 H
   H14        1.0     0.574968      0.221343      0.761699     Biso  1.000000 H
   H15        1.0     0.574968      0.721343      0.738301     Biso  1.000000 H
   H16        1.0     0.425032      0.278657      0.261699     Biso  1.000000 H
   H17        1.0     0.802783      0.582266      0.931566     Biso  1.000000 H
   H18        1.0     0.197217      0.417734      0.068434     Biso  1.000000 H
   H19        1.0     0.197217      0.917734      0.431566     Biso  1.000000 H
   H20        1.0     0.802783      0.082266      0.568434     Biso  1.000000 H
   H21        1.0     0.197217      0.082266      0.568434     Biso  1.000000 H
   H22        1.0     0.802783      0.917734      0.431566     Biso  1.000000 H
   H23        1.0     0.802783      0.417734      0.068434     Biso  1.000000 H
   H24        1.0     0.197217      0.582266      0.931566     Biso  1.000000 H
   H25        1.0     0.302783      0.082266      0.931566     Biso  1.000000 H
   H26        1.0     0.697217      0.917734      0.068434     Biso  1.000000 H
   H27        1.0     0.697217      0.417734      0.431566     Biso  1.000000 H
   H28        1.0     0.302783      0.582266      0.568434     Biso  1.000000 H
   H29        1.0     0.697217      0.582266      0.568434     Biso  1.000000 H
   H30        1.0     0.302783      0.417734      0.431566     Biso  1.000000 H
   H31        1.0     0.302783      0.917734      0.068434     Biso  1.000000 H
   H32        1.0     0.697217      0.082266      0.931566     Biso  1.000000 H
   H33        1.0     0.696741      0.568526      0.082463     Biso  1.000000 H
   H34        1.0     0.303259      0.431474      0.917537     Biso  1.000000 H
   H35        1.0     0.303259      0.931474      0.582463     Biso  1.000000 H
   H36        1.0     0.696741      0.068526      0.417537     Biso  1.000000 H
   H37        1.0     0.303259      0.068526      0.417537     Biso  1.000000 H
   H38        1.0     0.696741      0.931474      0.582463     Biso  1.000000 H
   H39        1.0     0.696741      0.431474      0.917537     Biso  1.000000 H
   H40        1.0     0.303259      0.568526      0.082463     Biso  1.000000 H
   H41        1.0     0.196741      0.068526      0.082463     Biso  1.000000 H
   H42        1.0     0.803259      0.931474      0.917537     Biso  1.000000 H
   H43        1.0     0.803259      0.431474      0.582463     Biso  1.000000 H
   H44        1.0     0.196741      0.568526      0.417537     Biso  1.000000 H
   H45        1.0     0.803259      0.568526      0.417537     Biso  1.000000 H
   H46        1.0     0.196741      0.431474      0.582463     Biso  1.000000 H
   H47        1.0     0.196741      0.931474      0.917537     Biso  1.000000 H
   H48        1.0     0.803259      0.068526      0.082463     Biso  1.000000 H
   H49        1.0     0.000000      0.601418      0.206587     Biso  1.000000 H
   H50        1.0     0.000000      0.398582      0.793413     Biso  1.000000 H
   H51        1.0     0.000000      0.898582      0.706587     Biso  1.000000 H
   H52        1.0     0.000000      0.101418      0.293413     Biso  1.000000 H
   H53        1.0     0.500000      0.101418      0.206587     Biso  1.000000 H
   H54        1.0     0.500000      0.898582      0.793413     Biso  1.000000 H
   H55        1.0     0.500000      0.398582      0.706587     Biso  1.000000 H
   H56        1.0     0.500000      0.601418      0.293413     Biso  1.000000 H
   H57        1.0     0.000000      0.228074      0.923613     Biso  1.000000 H
   H58        1.0     0.000000      0.771926      0.076387     Biso  1.000000 H
   H59        1.0     0.000000      0.271926      0.423613     Biso  1.000000 H
   H60        1.0     0.000000      0.728074      0.576387     Biso  1.000000 H
   H61        1.0     0.500000      0.728074      0.923613     Biso  1.000000 H
   H62        1.0     0.500000      0.271926      0.076387     Biso  1.000000 H
   H63        1.0     0.500000      0.771926      0.423613     Biso  1.000000 H
   H64        1.0     0.500000      0.228074      0.576387     Biso  1.000000 H
   C1         1.0     0.000000      0.232540      0.298468     Biso  1.000000 C
   C2         1.0     0.000000      0.767460      0.701532     Biso  1.000000 C
   C3         1.0     0.000000      0.267460      0.798468     Biso  1.000000 C
   C4         1.0     0.000000      0.732540      0.201532     Biso  1.000000 C
   C5         1.0     0.500000      0.732540      0.298468     Biso  1.000000 C
   C6         1.0     0.500000      0.267460      0.701532     Biso  1.000000 C
   C7         1.0     0.500000      0.767460      0.798468     Biso  1.000000 C
   C8         1.0     0.500000      0.232540      0.201532     Biso  1.000000 C
   C9         1.0     0.749666      0.500000      0.000000     Biso  1.000000 C
   C10        1.0     0.250334      0.500000      0.000000     Biso  1.000000 C
   C11        1.0     0.250334     -0.000000      0.500000     Biso  1.000000 C
   C12        1.0     0.749666     -0.000000      0.500000     Biso  1.000000 C
   C13        1.0     0.249666     -0.000000      0.000000     Biso  1.000000 C
   C14        1.0     0.750334     -0.000000      0.000000     Biso  1.000000 C
   C15        1.0     0.750334      0.500000      0.500000     Biso  1.000000 C
   C16        1.0     0.249666      0.500000      0.500000     Biso  1.000000 C
