#======================================================================

# CRYSTAL DATA

#----------------------------------------------------------------------

data_VESTA_phase_1


_chemical_name_common                  'methane-low                           '
_cell_length_a                         11.86197
_cell_length_b                         8.29707
_cell_length_c                         8.29190
_cell_angle_alpha                      90
_cell_angle_beta                       90
_cell_angle_gamma                      90
_space_group_name_H-M_alt              'P 1'
_space_group_IT_number                 1

loop_
_space_group_symop_operation_xyz
   'x, y, z'

loop_
   _atom_site_label
   _atom_site_occupancy
   _atom_site_fract_x
   _atom_site_fract_y
   _atom_site_fract_z
   _atom_site_adp_type
   _atom_site_B_iso_or_equiv
   _atom_site_type_symbol
   H1         1.0     0.075536      0.811761      0.214202     Biso  1.000000 H
   H2         1.0     0.924464      0.188239      0.785798     Biso  1.000000 H
   H3         1.0     0.924464      0.688239      0.714202     Biso  1.000000 H
   H4         1.0     0.075536      0.311761      0.285798     Biso  1.000000 H
   H5         1.0     0.924464      0.311761      0.285798     Biso  1.000000 H
   H6         1.0     0.075536      0.688239      0.714202     Biso  1.000000 H
   H7         1.0     0.075536      0.188239      0.785798     Biso  1.000000 H
   H8         1.0     0.924464      0.811761      0.214202     Biso  1.000000 H
   H9         1.0     0.575536      0.311761      0.214202     Biso  1.000000 H
   H10        1.0     0.424464      0.688239      0.785798     Biso  1.000000 H
   H11        1.0     0.424464      0.188239      0.714202     Biso  1.000000 H
   H12        1.0     0.575536      0.811761      0.285798     Biso  1.000000 H
   H13        1.0     0.424464      0.811761      0.285798     Biso  1.000000 H
   H14        1.0     0.575536      0.188239      0.714202     Biso  1.000000 H
   H15        1.0     0.575536      0.688239      0.785798     Biso  1.000000 H
   H16        1.0     0.424464      0.311761      0.214202     Biso  1.000000 H
   H17        1.0     0.811146      0.583642      0.932166     Biso  1.000000 H
   H18        1.0     0.188854      0.416358      0.067834     Biso  1.000000 H
   H19        1.0     0.188854      0.916358      0.432166     Biso  1.000000 H
   H20        1.0     0.811146      0.083642      0.567834     Biso  1.000000 H
   H21        1.0     0.188854      0.083642      0.567834     Biso  1.000000 H
   H22        1.0     0.811146      0.916358      0.432166     Biso  1.000000 H
   H23        1.0     0.811146      0.416358      0.067834     Biso  1.000000 H
   H24        1.0     0.188854      0.583642      0.932166     Biso  1.000000 H
   H25        1.0     0.311146      0.083642      0.932166     Biso  1.000000 H
   H26        1.0     0.688854      0.916358      0.067834     Biso  1.000000 H
   H27        1.0     0.688854      0.416358      0.432166     Biso  1.000000 H
   H28        1.0     0.311146      0.583642      0.567834     Biso  1.000000 H
   H29        1.0     0.688854      0.583642      0.567834     Biso  1.000000 H
   H30        1.0     0.311146      0.416358      0.432166     Biso  1.000000 H
   H31        1.0     0.311146      0.916358      0.067834     Biso  1.000000 H
   H32        1.0     0.688854      0.083642      0.932166     Biso  1.000000 H
   H33        1.0     0.704414      0.568179      0.083618     Biso  1.000000 H
   H34        1.0     0.295586      0.431821      0.916382     Biso  1.000000 H
   H35        1.0     0.295586      0.931821      0.583618     Biso  1.000000 H
   H36        1.0     0.704414      0.068179      0.416382     Biso  1.000000 H
   H37        1.0     0.295586      0.068179      0.416382     Biso  1.000000 H
   H38        1.0     0.704414      0.931821      0.583618     Biso  1.000000 H
   H39        1.0     0.704414      0.431821      0.916382     Biso  1.000000 H
   H40        1.0     0.295586      0.568179      0.083618     Biso  1.000000 H
   H41        1.0     0.204414      0.068179      0.083618     Biso  1.000000 H
   H42        1.0     0.795586      0.931821      0.916382     Biso  1.000000 H
   H43        1.0     0.795586      0.431821      0.583618     Biso  1.000000 H
   H44        1.0     0.204414      0.568179      0.416382     Biso  1.000000 H
   H45        1.0     0.795586      0.568179      0.416382     Biso  1.000000 H
   H46        1.0     0.204414      0.431821      0.583618     Biso  1.000000 H
   H47        1.0     0.204414      0.931821      0.916382     Biso  1.000000 H
   H48        1.0     0.795586      0.068179      0.083618     Biso  1.000000 H
   H49        1.0     0.000000      0.626461      0.189761     Biso  1.000000 H
   H50        1.0     0.000000      0.373539      0.810239     Biso  1.000000 H
   H51        1.0     0.000000      0.873539      0.689761     Biso  1.000000 H
   H52        1.0     0.000000      0.126461      0.310239     Biso  1.000000 H
   H53        1.0     0.500000      0.126461      0.189761     Biso  1.000000 H
   H54        1.0     0.500000      0.873539      0.810239     Biso  1.000000 H
   H55        1.0     0.500000      0.373539      0.689761     Biso  1.000000 H
   H56        1.0     0.500000      0.626461      0.310239     Biso  1.000000 H
   H57        1.0     0.000000      0.273427      0.468095     Biso  1.000000 H
   H58        1.0     0.000000      0.726573      0.531905     Biso  1.000000 H
   H59        1.0     0.000000      0.226573     -0.031905     Biso  1.000000 H
   H60        1.0     0.000000      0.773427      0.031905     Biso  1.000000 H
   H61        1.0     0.500000      0.773427      0.468095     Biso  1.000000 H
   H62        1.0     0.500000      0.226573      0.531905     Biso  1.000000 H
   H63        1.0     0.500000      0.726573     -0.031905     Biso  1.000000 H
   H64        1.0     0.500000      0.273427      0.031905     Biso  1.000000 H
   C1         1.0     0.000000      0.255710      0.337204     Biso  1.000000 C
   C2         1.0     0.000000      0.744290      0.662796     Biso  1.000000 C
   C3         1.0     0.000000      0.244290      0.837204     Biso  1.000000 C
   C4         1.0     0.000000      0.755710      0.162796     Biso  1.000000 C
   C5         1.0     0.500000      0.755710      0.337204     Biso  1.000000 C
   C6         1.0     0.500000      0.244290      0.662796     Biso  1.000000 C
   C7         1.0     0.500000      0.744290      0.837204     Biso  1.000000 C
   C8         1.0     0.500000      0.255710      0.162796     Biso  1.000000 C
   C9         1.0     0.757697      0.500000     -0.000000     Biso  1.000000 C
   C10        1.0     0.242303      0.500000     -0.000000     Biso  1.000000 C
   C11        1.0     0.242303     -0.000000      0.500000     Biso  1.000000 C
   C12        1.0     0.757697     -0.000000      0.500000     Biso  1.000000 C
   C13        1.0     0.257697     -0.000000     -0.000000     Biso  1.000000 C
   C14        1.0     0.742303     -0.000000     -0.000000     Biso  1.000000 C
   C15        1.0     0.742303      0.500000      0.500000     Biso  1.000000 C
   C16        1.0     0.257697      0.500000      0.500000     Biso  1.000000 C
