#======================================================================

# CRYSTAL DATA

#----------------------------------------------------------------------

data_VESTA_phase_1


_chemical_name_common                  'methane-low                           '
_cell_length_a                         11.78544
_cell_length_b                         8.24354
_cell_length_c                         8.23840
_cell_angle_alpha                      90
_cell_angle_beta                       90
_cell_angle_gamma                      90
_space_group_name_H-M_alt              'P 1'
_space_group_IT_number                 1

loop_
_space_group_symop_operation_xyz
   'x, y, z'

loop_
   _atom_site_label
   _atom_site_occupancy
   _atom_site_fract_x
   _atom_site_fract_y
   _atom_site_fract_z
   _atom_site_adp_type
   _atom_site_B_iso_or_equiv
   _atom_site_type_symbol
   H1         1.0     0.076105      0.819057      0.166754     Biso  1.000000 H
   H2         1.0     0.923895      0.180943      0.833246     Biso  1.000000 H
   H3         1.0     0.923895      0.680943      0.666754     Biso  1.000000 H
   H4         1.0     0.076105      0.319057      0.333246     Biso  1.000000 H
   H5         1.0     0.923895      0.319057      0.333246     Biso  1.000000 H
   H6         1.0     0.076105      0.680943      0.666754     Biso  1.000000 H
   H7         1.0     0.076105      0.180943      0.833246     Biso  1.000000 H
   H8         1.0     0.923895      0.819057      0.166754     Biso  1.000000 H
   H9         1.0     0.576105      0.319057      0.166754     Biso  1.000000 H
   H10        1.0     0.423895      0.680943      0.833246     Biso  1.000000 H
   H11        1.0     0.423895      0.180943      0.666754     Biso  1.000000 H
   H12        1.0     0.576105      0.819057      0.333246     Biso  1.000000 H
   H13        1.0     0.423895      0.819057      0.333246     Biso  1.000000 H
   H14        1.0     0.576105      0.180943      0.666754     Biso  1.000000 H
   H15        1.0     0.576105      0.680943      0.833246     Biso  1.000000 H
   H16        1.0     0.423895      0.319057      0.166754     Biso  1.000000 H
   H17        1.0     0.812103      0.584581      0.932096     Biso  1.000000 H
   H18        1.0     0.187897      0.415419      0.067904     Biso  1.000000 H
   H19        1.0     0.187897      0.915419      0.432096     Biso  1.000000 H
   H20        1.0     0.812103      0.084581      0.567904     Biso  1.000000 H
   H21        1.0     0.187897      0.084581      0.567904     Biso  1.000000 H
   H22        1.0     0.812103      0.915419      0.432096     Biso  1.000000 H
   H23        1.0     0.812103      0.415419      0.067904     Biso  1.000000 H
   H24        1.0     0.187897      0.584581      0.932096     Biso  1.000000 H
   H25        1.0     0.312103      0.084581      0.932096     Biso  1.000000 H
   H26        1.0     0.687897      0.915419      0.067904     Biso  1.000000 H
   H27        1.0     0.687897      0.415419      0.432096     Biso  1.000000 H
   H28        1.0     0.312103      0.584581      0.567904     Biso  1.000000 H
   H29        1.0     0.687897      0.584581      0.567904     Biso  1.000000 H
   H30        1.0     0.312103      0.415419      0.432096     Biso  1.000000 H
   H31        1.0     0.312103      0.915419      0.067904     Biso  1.000000 H
   H32        1.0     0.687897      0.084581      0.932096     Biso  1.000000 H
   H33        1.0     0.704688      0.568170      0.084469     Biso  1.000000 H
   H34        1.0     0.295312      0.431830      0.915531     Biso  1.000000 H
   H35        1.0     0.295312      0.931830      0.584469     Biso  1.000000 H
   H36        1.0     0.704688      0.068170      0.415531     Biso  1.000000 H
   H37        1.0     0.295312      0.068170      0.415531     Biso  1.000000 H
   H38        1.0     0.704688      0.931830      0.584469     Biso  1.000000 H
   H39        1.0     0.704688      0.431830      0.915531     Biso  1.000000 H
   H40        1.0     0.295312      0.568170      0.084469     Biso  1.000000 H
   H41        1.0     0.204688      0.068170      0.084469     Biso  1.000000 H
   H42        1.0     0.795312      0.931830      0.915531     Biso  1.000000 H
   H43        1.0     0.795312      0.431830      0.584469     Biso  1.000000 H
   H44        1.0     0.204688      0.568170      0.415531     Biso  1.000000 H
   H45        1.0     0.795312      0.568170      0.415531     Biso  1.000000 H
   H46        1.0     0.204688      0.431830      0.584469     Biso  1.000000 H
   H47        1.0     0.204688      0.931830      0.915531     Biso  1.000000 H
   H48        1.0     0.795312      0.068170      0.084469     Biso  1.000000 H
   H49        1.0    -0.000000      0.632614      0.144672     Biso  1.000000 H
   H50        1.0    -0.000000      0.367386      0.855328     Biso  1.000000 H
   H51        1.0    -0.000000      0.867386      0.644672     Biso  1.000000 H
   H52        1.0    -0.000000      0.132614      0.355328     Biso  1.000000 H
   H53        1.0     0.500000      0.132614      0.144672     Biso  1.000000 H
   H54        1.0     0.500000      0.867386      0.855328     Biso  1.000000 H
   H55        1.0     0.500000      0.367386      0.644672     Biso  1.000000 H
   H56        1.0     0.500000      0.632614      0.355328     Biso  1.000000 H
   H57        1.0    -0.000000      0.278270      0.516186     Biso  1.000000 H
   H58        1.0    -0.000000      0.721730      0.483814     Biso  1.000000 H
   H59        1.0    -0.000000      0.221730      0.016186     Biso  1.000000 H
   H60        1.0    -0.000000      0.778270      0.983814     Biso  1.000000 H
   H61        1.0     0.500000      0.778270      0.516186     Biso  1.000000 H
   H62        1.0     0.500000      0.221730      0.483814     Biso  1.000000 H
   H63        1.0     0.500000      0.721730      0.016186     Biso  1.000000 H
   H64        1.0     0.500000      0.278270      0.983814     Biso  1.000000 H
   C1         1.0    -0.000000      0.262288      0.384104     Biso  1.000000 C
   C2         1.0    -0.000000      0.737712      0.615896     Biso  1.000000 C
   C3         1.0    -0.000000      0.237712      0.884104     Biso  1.000000 C
   C4         1.0    -0.000000      0.762288      0.115896     Biso  1.000000 C
   C5         1.0     0.500000      0.762288      0.384104     Biso  1.000000 C
   C6         1.0     0.500000      0.237712      0.615896     Biso  1.000000 C
   C7         1.0     0.500000      0.737712      0.884104     Biso  1.000000 C
   C8         1.0     0.500000      0.262288      0.115896     Biso  1.000000 C
   C9         1.0     0.758395      0.500000     -0.000000     Biso  1.000000 C
   C10        1.0     0.241605      0.500000     -0.000000     Biso  1.000000 C
   C11        1.0     0.241605     -0.000000      0.500000     Biso  1.000000 C
   C12        1.0     0.758395     -0.000000      0.500000     Biso  1.000000 C
   C13        1.0     0.258395     -0.000000     -0.000000     Biso  1.000000 C
   C14        1.0     0.741605     -0.000000     -0.000000     Biso  1.000000 C
   C15        1.0     0.741605      0.500000      0.500000     Biso  1.000000 C
   C16        1.0     0.258395      0.500000      0.500000     Biso  1.000000 C
