#======================================================================

# CRYSTAL DATA

#----------------------------------------------------------------------

data_VESTA_phase_1


_chemical_name_common                  'methane-low                           '
_cell_length_a                         11.70790
_cell_length_b                         8.18930
_cell_length_c                         8.18420
_cell_angle_alpha                      90
_cell_angle_beta                       90
_cell_angle_gamma                      90
_space_group_name_H-M_alt              'P 1'
_space_group_IT_number                 1

loop_
_space_group_symop_operation_xyz
   'x, y, z'

loop_
   _atom_site_label
   _atom_site_occupancy
   _atom_site_fract_x
   _atom_site_fract_y
   _atom_site_fract_z
   _atom_site_adp_type
   _atom_site_B_iso_or_equiv
   _atom_site_type_symbol
   H1         1.0     0.076549      0.806971      0.219540     Biso  1.000000 H
   H2         1.0     0.923451      0.193029      0.780460     Biso  1.000000 H
   H3         1.0     0.923451      0.693029      0.719540     Biso  1.000000 H
   H4         1.0     0.076549      0.306971      0.280460     Biso  1.000000 H
   H5         1.0     0.923451      0.306971      0.280460     Biso  1.000000 H
   H6         1.0     0.076549      0.693029      0.719540     Biso  1.000000 H
   H7         1.0     0.076549      0.193029      0.780460     Biso  1.000000 H
   H8         1.0     0.923451      0.806971      0.219540     Biso  1.000000 H
   H9         1.0     0.576549      0.306971      0.219540     Biso  1.000000 H
   H10        1.0     0.423451      0.693029      0.780460     Biso  1.000000 H
   H11        1.0     0.423451      0.193029      0.719540     Biso  1.000000 H
   H12        1.0     0.576549      0.806971      0.280460     Biso  1.000000 H
   H13        1.0     0.423451      0.806971      0.280460     Biso  1.000000 H
   H14        1.0     0.576549      0.193029      0.719540     Biso  1.000000 H
   H15        1.0     0.576549      0.693029      0.780460     Biso  1.000000 H
   H16        1.0     0.423451      0.306971      0.219540     Biso  1.000000 H
   H17        1.0     0.811137      0.585881      0.932800     Biso  1.000000 H
   H18        1.0     0.188863      0.414119      0.067200     Biso  1.000000 H
   H19        1.0     0.188863      0.914119      0.432799     Biso  1.000000 H
   H20        1.0     0.811137      0.085881      0.567200     Biso  1.000000 H
   H21        1.0     0.188863      0.085881      0.567200     Biso  1.000000 H
   H22        1.0     0.811137      0.914119      0.432799     Biso  1.000000 H
   H23        1.0     0.811137      0.414119      0.067200     Biso  1.000000 H
   H24        1.0     0.188863      0.585881      0.932800     Biso  1.000000 H
   H25        1.0     0.311137      0.085881      0.932800     Biso  1.000000 H
   H26        1.0     0.688863      0.914119      0.067200     Biso  1.000000 H
   H27        1.0     0.688863      0.414119      0.432799     Biso  1.000000 H
   H28        1.0     0.311137      0.585881      0.567200     Biso  1.000000 H
   H29        1.0     0.688863      0.585881      0.567200     Biso  1.000000 H
   H30        1.0     0.311137      0.414119      0.432799     Biso  1.000000 H
   H31        1.0     0.311137      0.914119      0.067200     Biso  1.000000 H
   H32        1.0     0.688863      0.085881      0.932800     Biso  1.000000 H
   H33        1.0     0.703016      0.567550      0.085910     Biso  1.000000 H
   H34        1.0     0.296984      0.432450      0.914090     Biso  1.000000 H
   H35        1.0     0.296984      0.932450      0.585910     Biso  1.000000 H
   H36        1.0     0.703016      0.067550      0.414090     Biso  1.000000 H
   H37        1.0     0.296984      0.067550      0.414090     Biso  1.000000 H
   H38        1.0     0.703016      0.932450      0.585910     Biso  1.000000 H
   H39        1.0     0.703016      0.432450      0.914090     Biso  1.000000 H
   H40        1.0     0.296984      0.567550      0.085910     Biso  1.000000 H
   H41        1.0     0.203016      0.067550      0.085910     Biso  1.000000 H
   H42        1.0     0.796984      0.932450      0.914090     Biso  1.000000 H
   H43        1.0     0.796984      0.432450      0.585910     Biso  1.000000 H
   H44        1.0     0.203016      0.567550      0.414090     Biso  1.000000 H
   H45        1.0     0.796984      0.567550      0.414090     Biso  1.000000 H
   H46        1.0     0.203016      0.432450      0.585910     Biso  1.000000 H
   H47        1.0     0.203016      0.932450      0.914090     Biso  1.000000 H
   H48        1.0     0.796984      0.067550      0.085910     Biso  1.000000 H
   H49        1.0    -0.000000      0.619811      0.191292     Biso  1.000000 H
   H50        1.0    -0.000000      0.380189      0.808708     Biso  1.000000 H
   H51        1.0    -0.000000      0.880189      0.691292     Biso  1.000000 H
   H52        1.0    -0.000000      0.119811      0.308708     Biso  1.000000 H
   H53        1.0     0.500000      0.119811      0.191292     Biso  1.000000 H
   H54        1.0     0.500000      0.880189      0.808708     Biso  1.000000 H
   H55        1.0     0.500000      0.380189      0.691292     Biso  1.000000 H
   H56        1.0     0.500000      0.619811      0.308708     Biso  1.000000 H
   H57        1.0    -0.000000      0.271759      0.465789     Biso  1.000000 H
   H58        1.0    -0.000000      0.728241      0.534211     Biso  1.000000 H
   H59        1.0    -0.000000      0.228241     -0.034211     Biso  1.000000 H
   H60        1.0    -0.000000      0.771759      0.034211     Biso  1.000000 H
   H61        1.0     0.500000      0.771759      0.465789     Biso  1.000000 H
   H62        1.0     0.500000      0.228241      0.534211     Biso  1.000000 H
   H63        1.0     0.500000      0.728241     -0.034211     Biso  1.000000 H
   H64        1.0     0.500000      0.271759      0.034211     Biso  1.000000 H
   C1         1.0    -0.000000      0.251270      0.333564     Biso  1.000000 C
   C2         1.0    -0.000000      0.748730      0.666436     Biso  1.000000 C
   C3         1.0    -0.000000      0.248730      0.833564     Biso  1.000000 C
   C4         1.0    -0.000000      0.751270      0.166436     Biso  1.000000 C
   C5         1.0     0.500000      0.751270      0.333564     Biso  1.000000 C
   C6         1.0     0.500000      0.248730      0.666436     Biso  1.000000 C
   C7         1.0     0.500000      0.748730      0.833564     Biso  1.000000 C
   C8         1.0     0.500000      0.251270      0.166436     Biso  1.000000 C
   C9         1.0     0.756960      0.500000     -0.000000     Biso  1.000000 C
   C10        1.0     0.243040      0.500000     -0.000000     Biso  1.000000 C
   C11        1.0     0.243040     -0.000000      0.500000     Biso  1.000000 C
   C12        1.0     0.756960     -0.000000      0.500000     Biso  1.000000 C
   C13        1.0     0.256960     -0.000000     -0.000000     Biso  1.000000 C
   C14        1.0     0.743040     -0.000000     -0.000000     Biso  1.000000 C
   C15        1.0     0.743040      0.500000      0.500000     Biso  1.000000 C
   C16        1.0     0.256960      0.500000      0.500000     Biso  1.000000 C
