#======================================================================

# CRYSTAL DATA

#----------------------------------------------------------------------

data_VESTA_phase_1


_chemical_name_common                  'methane-low                           '
_cell_length_a                         11.62932
_cell_length_b                         8.13434
_cell_length_c                         8.12927
_cell_angle_alpha                      90
_cell_angle_beta                       90
_cell_angle_gamma                      90
_space_group_name_H-M_alt              'P 1'
_space_group_IT_number                 1

loop_
_space_group_symop_operation_xyz
   'x, y, z'

loop_
   _atom_site_label
   _atom_site_occupancy
   _atom_site_fract_x
   _atom_site_fract_y
   _atom_site_fract_z
   _atom_site_adp_type
   _atom_site_B_iso_or_equiv
   _atom_site_type_symbol
   H1         1.0     0.077103      0.817734      0.165624     Biso  1.000000 H
   H2         1.0     0.922897      0.182266      0.834376     Biso  1.000000 H
   H3         1.0     0.922897      0.682266      0.665624     Biso  1.000000 H
   H4         1.0     0.077103      0.317734      0.334376     Biso  1.000000 H
   H5         1.0     0.922897      0.317734      0.334376     Biso  1.000000 H
   H6         1.0     0.077103      0.682266      0.665624     Biso  1.000000 H
   H7         1.0     0.077103      0.182266      0.834376     Biso  1.000000 H
   H8         1.0     0.922897      0.817734      0.165624     Biso  1.000000 H
   H9         1.0     0.577103      0.317734      0.165624     Biso  1.000000 H
   H10        1.0     0.422897      0.682266      0.834376     Biso  1.000000 H
   H11        1.0     0.422897      0.182266      0.665624     Biso  1.000000 H
   H12        1.0     0.577103      0.817734      0.334376     Biso  1.000000 H
   H13        1.0     0.422897      0.817734      0.334376     Biso  1.000000 H
   H14        1.0     0.577103      0.182266      0.665624     Biso  1.000000 H
   H15        1.0     0.577103      0.682266      0.834376     Biso  1.000000 H
   H16        1.0     0.422897      0.317734      0.165624     Biso  1.000000 H
   H17        1.0     0.812448      0.585480      0.930959     Biso  1.000000 H
   H18        1.0     0.187552      0.414520      0.069041     Biso  1.000000 H
   H19        1.0     0.187552      0.914520      0.430959     Biso  1.000000 H
   H20        1.0     0.812448      0.085480      0.569041     Biso  1.000000 H
   H21        1.0     0.187552      0.085480      0.569041     Biso  1.000000 H
   H22        1.0     0.812448      0.914520      0.430959     Biso  1.000000 H
   H23        1.0     0.812448      0.414520      0.069041     Biso  1.000000 H
   H24        1.0     0.187552      0.585480      0.930959     Biso  1.000000 H
   H25        1.0     0.312448      0.085480      0.930959     Biso  1.000000 H
   H26        1.0     0.687552      0.914520      0.069041     Biso  1.000000 H
   H27        1.0     0.687552      0.414520      0.430959     Biso  1.000000 H
   H28        1.0     0.312448      0.585480      0.569041     Biso  1.000000 H
   H29        1.0     0.687552      0.585480      0.569041     Biso  1.000000 H
   H30        1.0     0.312448      0.414520      0.430959     Biso  1.000000 H
   H31        1.0     0.312448      0.914520      0.069041     Biso  1.000000 H
   H32        1.0     0.687552      0.085480      0.930959     Biso  1.000000 H
   H33        1.0     0.703658      0.569325      0.085356     Biso  1.000000 H
   H34        1.0     0.296342      0.430675      0.914644     Biso  1.000000 H
   H35        1.0     0.296342      0.930675      0.585356     Biso  1.000000 H
   H36        1.0     0.703658      0.069325      0.414644     Biso  1.000000 H
   H37        1.0     0.296342      0.069325      0.414644     Biso  1.000000 H
   H38        1.0     0.703658      0.930675      0.585356     Biso  1.000000 H
   H39        1.0     0.703658      0.430675      0.914644     Biso  1.000000 H
   H40        1.0     0.296342      0.569325      0.085356     Biso  1.000000 H
   H41        1.0     0.203658      0.069325      0.085356     Biso  1.000000 H
   H42        1.0     0.796342      0.930675      0.914644     Biso  1.000000 H
   H43        1.0     0.796342      0.430675      0.585356     Biso  1.000000 H
   H44        1.0     0.203658      0.569325      0.414644     Biso  1.000000 H
   H45        1.0     0.796342      0.569325      0.414644     Biso  1.000000 H
   H46        1.0     0.203658      0.430675      0.585356     Biso  1.000000 H
   H47        1.0     0.203658      0.930675      0.914644     Biso  1.000000 H
   H48        1.0     0.796342      0.069325      0.085356     Biso  1.000000 H
   H49        1.0    -0.000000      0.628608      0.141814     Biso  1.000000 H
   H50        1.0    -0.000000      0.371392      0.858186     Biso  1.000000 H
   H51        1.0    -0.000000      0.871392      0.641814     Biso  1.000000 H
   H52        1.0    -0.000000      0.128608      0.358186     Biso  1.000000 H
   H53        1.0     0.500000      0.128608      0.141814     Biso  1.000000 H
   H54        1.0     0.500000      0.871392      0.858186     Biso  1.000000 H
   H55        1.0     0.500000      0.371392      0.641814     Biso  1.000000 H
   H56        1.0     0.500000      0.628608      0.358186     Biso  1.000000 H
   H57        1.0    -0.000000      0.277582      0.519820     Biso  1.000000 H
   H58        1.0    -0.000000      0.722418      0.480180     Biso  1.000000 H
   H59        1.0    -0.000000      0.222418      0.019820     Biso  1.000000 H
   H60        1.0    -0.000000      0.777582      0.980180     Biso  1.000000 H
   H61        1.0     0.500000      0.777582      0.519820     Biso  1.000000 H
   H62        1.0     0.500000      0.222418      0.480180     Biso  1.000000 H
   H63        1.0     0.500000      0.722418      0.019820     Biso  1.000000 H
   H64        1.0     0.500000      0.277582      0.980180     Biso  1.000000 H
   C1         1.0    -0.000000      0.260344      0.386154     Biso  1.000000 C
   C2         1.0    -0.000000      0.739656      0.613846     Biso  1.000000 C
   C3         1.0    -0.000000      0.239656      0.886154     Biso  1.000000 C
   C4         1.0    -0.000000      0.760344      0.113846     Biso  1.000000 C
   C5         1.0     0.500000      0.760344      0.386154     Biso  1.000000 C
   C6         1.0     0.500000      0.239656      0.613846     Biso  1.000000 C
   C7         1.0     0.500000      0.739656      0.886154     Biso  1.000000 C
   C8         1.0     0.500000      0.260344      0.113846     Biso  1.000000 C
   C9         1.0     0.758029      0.500000     -0.000000     Biso  1.000000 C
   C10        1.0     0.241971      0.500000     -0.000000     Biso  1.000000 C
   C11        1.0     0.241971      0.000000      0.500000     Biso  1.000000 C
   C12        1.0     0.758029      0.000000      0.500000     Biso  1.000000 C
   C13        1.0     0.258029      0.000000     -0.000000     Biso  1.000000 C
   C14        1.0     0.741971      0.000000     -0.000000     Biso  1.000000 C
   C15        1.0     0.741971      0.500000      0.500000     Biso  1.000000 C
   C16        1.0     0.258029      0.500000      0.500000     Biso  1.000000 C
