#======================================================================

# CRYSTAL DATA

#----------------------------------------------------------------------

data_VESTA_phase_1


_chemical_name_common                  'C6 H6                                 '
_cell_length_a                         7.30564
_cell_length_b                         9.30811
_cell_length_c                         6.65503
_cell_angle_alpha                      90
_cell_angle_beta                       90
_cell_angle_gamma                      90
_space_group_name_H-M_alt              'P 1'
_space_group_IT_number                 1

loop_
_space_group_symop_operation_xyz
   'x, y, z'

loop_
   _atom_site_label
   _atom_site_occupancy
   _atom_site_fract_x
   _atom_site_fract_y
   _atom_site_fract_z
   _atom_site_adp_type
   _atom_site_B_iso_or_equiv
   _atom_site_type_symbol
   C1         1.0     0.944311      0.143693      0.002637     Biso  1.000000 C
   C2         1.0     0.055689      0.856306     -0.002637     Biso  1.000000 C
   C3         1.0     0.555689      0.856306      0.502637     Biso  1.000000 C
   C4         1.0     0.444311      0.143693      0.497363     Biso  1.000000 C
   C5         1.0     0.055689      0.643694      0.497363     Biso  1.000000 C
   C6         1.0     0.944311      0.356306      0.502637     Biso  1.000000 C
   C7         1.0     0.444311      0.356306     -0.002637     Biso  1.000000 C
   C8         1.0     0.555689      0.643694      0.002637     Biso  1.000000 C
   C9         1.0     0.079116      0.095844      0.135797     Biso  1.000000 C
   C10        1.0     0.920884      0.904156      0.864203     Biso  1.000000 C
   C11        1.0     0.420884      0.904156      0.635797     Biso  1.000000 C
   C12        1.0     0.579116      0.095844      0.364203     Biso  1.000000 C
   C13        1.0     0.920884      0.595844      0.364203     Biso  1.000000 C
   C14        1.0     0.079116      0.404156      0.635797     Biso  1.000000 C
   C15        1.0     0.579116      0.404156      0.864203     Biso  1.000000 C
   C16        1.0     0.420884      0.595844      0.135797     Biso  1.000000 C
   C17        1.0     0.864862      0.047714      0.866633     Biso  1.000000 C
   C18        1.0     0.135138      0.952286      0.133368     Biso  1.000000 C
   C19        1.0     0.635138      0.952286      0.366632     Biso  1.000000 C
   C20        1.0     0.364862      0.047714      0.633367     Biso  1.000000 C
   C21        1.0     0.135138      0.547714      0.633367     Biso  1.000000 C
   C22        1.0     0.864862      0.452286      0.366632     Biso  1.000000 C
   C23        1.0     0.364862      0.452286      0.133368     Biso  1.000000 C
   C24        1.0     0.635138      0.547714      0.866633     Biso  1.000000 C
   H1         1.0     0.901494      0.255913      0.004896     Biso  1.000000 H
   H2         1.0     0.098506      0.744087     -0.004896     Biso  1.000000 H
   H3         1.0     0.598506      0.744087      0.504896     Biso  1.000000 H
   H4         1.0     0.401494      0.255913      0.495104     Biso  1.000000 H
   H5         1.0     0.098506      0.755913      0.495104     Biso  1.000000 H
   H6         1.0     0.901494      0.244087      0.504896     Biso  1.000000 H
   H7         1.0     0.401494      0.244087     -0.004896     Biso  1.000000 H
   H8         1.0     0.598506      0.755913      0.004896     Biso  1.000000 H
   H9         1.0     0.140355      0.170097      0.242910     Biso  1.000000 H
   H10        1.0     0.859645      0.829903      0.757090     Biso  1.000000 H
   H11        1.0     0.359645      0.829903      0.742910     Biso  1.000000 H
   H12        1.0     0.640355      0.170097      0.257090     Biso  1.000000 H
   H13        1.0     0.859645      0.670097      0.257090     Biso  1.000000 H
   H14        1.0     0.140355      0.329903      0.742910     Biso  1.000000 H
   H15        1.0     0.640355      0.329903      0.757090     Biso  1.000000 H
   H16        1.0     0.359645      0.670097      0.242910     Biso  1.000000 H
   H17        1.0     0.758851      0.083583      0.762681     Biso  1.000000 H
   H18        1.0     0.241149      0.916417      0.237319     Biso  1.000000 H
   H19        1.0     0.741149      0.916417      0.262681     Biso  1.000000 H
   H20        1.0     0.258851      0.083583      0.737319     Biso  1.000000 H
   H21        1.0     0.241149      0.583583      0.737319     Biso  1.000000 H
   H22        1.0     0.758851      0.416417      0.262681     Biso  1.000000 H
   H23        1.0     0.258851      0.416417      0.237319     Biso  1.000000 H
   H24        1.0     0.741149      0.583583      0.762681     Biso  1.000000 H
