#======================================================================

# CRYSTAL DATA

#----------------------------------------------------------------------

data_VESTA_phase_1


_chemical_name_common                  'C6 H6                                 '
_cell_length_a                         7.25560
_cell_length_b                         9.24435
_cell_length_c                         6.60945
_cell_angle_alpha                      90
_cell_angle_beta                       90
_cell_angle_gamma                      90
_space_group_name_H-M_alt              'P 1'
_space_group_IT_number                 1

loop_
_space_group_symop_operation_xyz
   'x, y, z'

loop_
   _atom_site_label
   _atom_site_occupancy
   _atom_site_fract_x
   _atom_site_fract_y
   _atom_site_fract_z
   _atom_site_adp_type
   _atom_site_B_iso_or_equiv
   _atom_site_type_symbol
   C1         1.0     0.939277      0.143344      0.006379     Biso  1.000000 C
   C2         1.0     0.060723      0.856656     -0.006379     Biso  1.000000 C
   C3         1.0     0.560723      0.856656      0.506379     Biso  1.000000 C
   C4         1.0     0.439277      0.143344      0.493621     Biso  1.000000 C
   C5         1.0     0.060723      0.643344      0.493621     Biso  1.000000 C
   C6         1.0     0.939277      0.356656      0.506379     Biso  1.000000 C
   C7         1.0     0.439277      0.356656     -0.006379     Biso  1.000000 C
   C8         1.0     0.560723      0.643344      0.006379     Biso  1.000000 C
   C9         1.0     0.077567      0.097054      0.137696     Biso  1.000000 C
   C10        1.0     0.922433      0.902946      0.862304     Biso  1.000000 C
   C11        1.0     0.422433      0.902946      0.637696     Biso  1.000000 C
   C12        1.0     0.577567      0.097054      0.362304     Biso  1.000000 C
   C13        1.0     0.922433      0.597054      0.362304     Biso  1.000000 C
   C14        1.0     0.077567      0.402946      0.637696     Biso  1.000000 C
   C15        1.0     0.577567      0.402946      0.862304     Biso  1.000000 C
   C16        1.0     0.422433      0.597054      0.137696     Biso  1.000000 C
   C17        1.0     0.861953      0.046293      0.868027     Biso  1.000000 C
   C18        1.0     0.138047      0.953707      0.131973     Biso  1.000000 C
   C19        1.0     0.638047      0.953707      0.368027     Biso  1.000000 C
   C20        1.0     0.361953      0.046293      0.631973     Biso  1.000000 C
   C21        1.0     0.138047      0.546293      0.631973     Biso  1.000000 C
   C22        1.0     0.861953      0.453707      0.368027     Biso  1.000000 C
   C23        1.0     0.361953      0.453707      0.131973     Biso  1.000000 C
   C24        1.0     0.638047      0.546293      0.868027     Biso  1.000000 C
   H1         1.0     0.892285      0.255558      0.010315     Biso  1.000000 H
   H2         1.0     0.107715      0.744442     -0.010315     Biso  1.000000 H
   H3         1.0     0.607715      0.744442      0.510315     Biso  1.000000 H
   H4         1.0     0.392285      0.255558      0.489685     Biso  1.000000 H
   H5         1.0     0.107715      0.755558      0.489685     Biso  1.000000 H
   H6         1.0     0.892285      0.244442      0.510315     Biso  1.000000 H
   H7         1.0     0.392285      0.244442     -0.010315     Biso  1.000000 H
   H8         1.0     0.607715      0.755558      0.010315     Biso  1.000000 H
   H9         1.0     0.137608      0.171909      0.246252     Biso  1.000000 H
   H10        1.0     0.862392      0.828091      0.753748     Biso  1.000000 H
   H11        1.0     0.362392      0.828091      0.746252     Biso  1.000000 H
   H12        1.0     0.637608      0.171909      0.253748     Biso  1.000000 H
   H13        1.0     0.862392      0.671909      0.253748     Biso  1.000000 H
   H14        1.0     0.137608      0.328091      0.746252     Biso  1.000000 H
   H15        1.0     0.637608      0.328091      0.753748     Biso  1.000000 H
   H16        1.0     0.362392      0.671909      0.246252     Biso  1.000000 H
   H17        1.0     0.752731      0.081421      0.765018     Biso  1.000000 H
   H18        1.0     0.247269      0.918579      0.234982     Biso  1.000000 H
   H19        1.0     0.747269      0.918579      0.265018     Biso  1.000000 H
   H20        1.0     0.252731      0.081421      0.734982     Biso  1.000000 H
   H21        1.0     0.247269      0.581421      0.734982     Biso  1.000000 H
   H22        1.0     0.752731      0.418579      0.265018     Biso  1.000000 H
   H23        1.0     0.252731      0.418579      0.234982     Biso  1.000000 H
   H24        1.0     0.747269      0.581421      0.765018     Biso  1.000000 H
