#======================================================================

# CRYSTAL DATA

#----------------------------------------------------------------------

data_VESTA_phase_1


_chemical_name_common                  'methane-low                           '
_cell_length_a                         11.54967
_cell_length_b                         8.07862
_cell_length_c                         8.07359
_cell_angle_alpha                      90
_cell_angle_beta                       90
_cell_angle_gamma                      90
_space_group_name_H-M_alt              'P 1'
_space_group_IT_number                 1

loop_
_space_group_symop_operation_xyz
   'x, y, z'

loop_
   _atom_site_label
   _atom_site_occupancy
   _atom_site_fract_x
   _atom_site_fract_y
   _atom_site_fract_z
   _atom_site_adp_type
   _atom_site_B_iso_or_equiv
   _atom_site_type_symbol
   H1         1.0     0.077410      0.795791      0.154036     Biso  1.000000 H
   H2         1.0     0.922590      0.204209      0.845964     Biso  1.000000 H
   H3         1.0     0.922590      0.704209      0.654036     Biso  1.000000 H
   H4         1.0     0.077410      0.295791      0.345964     Biso  1.000000 H
   H5         1.0     0.922590      0.295791      0.345964     Biso  1.000000 H
   H6         1.0     0.077410      0.704209      0.654036     Biso  1.000000 H
   H7         1.0     0.077410      0.204209      0.845964     Biso  1.000000 H
   H8         1.0     0.922590      0.795791      0.154036     Biso  1.000000 H
   H9         1.0     0.577410      0.295791      0.154036     Biso  1.000000 H
   H10        1.0     0.422590      0.704209      0.845964     Biso  1.000000 H
   H11        1.0     0.422590      0.204209      0.654036     Biso  1.000000 H
   H12        1.0     0.577410      0.795791      0.345964     Biso  1.000000 H
   H13        1.0     0.422590      0.795791      0.345964     Biso  1.000000 H
   H14        1.0     0.577410      0.204209      0.654036     Biso  1.000000 H
   H15        1.0     0.577410      0.704209      0.845964     Biso  1.000000 H
   H16        1.0     0.422590      0.295791      0.154036     Biso  1.000000 H
   H17        1.0     0.804683      0.584921      0.929087     Biso  1.000000 H
   H18        1.0     0.195317      0.415079      0.070913     Biso  1.000000 H
   H19        1.0     0.195317      0.915079      0.429087     Biso  1.000000 H
   H20        1.0     0.804683      0.084921      0.570913     Biso  1.000000 H
   H21        1.0     0.195317      0.084921      0.570913     Biso  1.000000 H
   H22        1.0     0.804683      0.915079      0.429087     Biso  1.000000 H
   H23        1.0     0.804683      0.415079      0.070913     Biso  1.000000 H
   H24        1.0     0.195317      0.584921      0.929087     Biso  1.000000 H
   H25        1.0     0.304683      0.084921      0.929087     Biso  1.000000 H
   H26        1.0     0.695317      0.915079      0.070913     Biso  1.000000 H
   H27        1.0     0.695317      0.415079      0.429087     Biso  1.000000 H
   H28        1.0     0.304683      0.584921      0.570913     Biso  1.000000 H
   H29        1.0     0.695317      0.584921      0.570913     Biso  1.000000 H
   H30        1.0     0.304683      0.415079      0.429087     Biso  1.000000 H
   H31        1.0     0.304683      0.915079      0.070913     Biso  1.000000 H
   H32        1.0     0.695317      0.084921      0.929087     Biso  1.000000 H
   H33        1.0     0.695190      0.570879      0.085271     Biso  1.000000 H
   H34        1.0     0.304810      0.429121      0.914729     Biso  1.000000 H
   H35        1.0     0.304810      0.929121      0.585271     Biso  1.000000 H
   H36        1.0     0.695190      0.070879      0.414729     Biso  1.000000 H
   H37        1.0     0.304810      0.070879      0.414729     Biso  1.000000 H
   H38        1.0     0.695190      0.929121      0.585271     Biso  1.000000 H
   H39        1.0     0.695190      0.429121      0.914729     Biso  1.000000 H
   H40        1.0     0.304810      0.570879      0.085271     Biso  1.000000 H
   H41        1.0     0.195190      0.070879      0.085271     Biso  1.000000 H
   H42        1.0     0.804810      0.929121      0.914729     Biso  1.000000 H
   H43        1.0     0.804810      0.429121      0.585271     Biso  1.000000 H
   H44        1.0     0.195190      0.570879      0.414729     Biso  1.000000 H
   H45        1.0     0.804810      0.570879      0.414729     Biso  1.000000 H
   H46        1.0     0.195190      0.429121      0.585271     Biso  1.000000 H
   H47        1.0     0.195190      0.929121      0.914729     Biso  1.000000 H
   H48        1.0     0.804810      0.070879      0.085271     Biso  1.000000 H
   H49        1.0     0.000000      0.604038      0.158346     Biso  1.000000 H
   H50        1.0     0.000000      0.395962      0.841654     Biso  1.000000 H
   H51        1.0     0.000000      0.895962      0.658346     Biso  1.000000 H
   H52        1.0     0.000000      0.104038      0.341654     Biso  1.000000 H
   H53        1.0     0.500000      0.104038      0.158346     Biso  1.000000 H
   H54        1.0     0.500000      0.895962      0.841654     Biso  1.000000 H
   H55        1.0     0.500000      0.395962      0.658346     Biso  1.000000 H
   H56        1.0     0.500000      0.604038      0.341654     Biso  1.000000 H
   H57        1.0     0.000000      0.264232      0.663614     Biso  1.000000 H
   H58        1.0     0.000000      0.735768      0.336386     Biso  1.000000 H
   H59        1.0     0.000000      0.235769      0.163614     Biso  1.000000 H
   H60        1.0     0.000000      0.764232      0.836386     Biso  1.000000 H
   H61        1.0     0.500000      0.764232      0.663614     Biso  1.000000 H
   H62        1.0     0.500000      0.235769      0.336386     Biso  1.000000 H
   H63        1.0     0.500000      0.735768      0.163614     Biso  1.000000 H
   H64        1.0     0.500000      0.264232      0.836386     Biso  1.000000 H
   C1         1.0     0.000000      0.232812      0.299291     Biso  1.000000 C
   C2         1.0     0.000000      0.767188      0.700709     Biso  1.000000 C
   C3         1.0     0.000000      0.267188      0.799291     Biso  1.000000 C
   C4         1.0     0.000000      0.732812      0.200709     Biso  1.000000 C
   C5         1.0     0.500000      0.732812      0.299291     Biso  1.000000 C
   C6         1.0     0.500000      0.267188      0.700709     Biso  1.000000 C
   C7         1.0     0.500000      0.767188      0.799291     Biso  1.000000 C
   C8         1.0     0.500000      0.232812      0.200709     Biso  1.000000 C
   C9         1.0     0.749849      0.500000      0.000000     Biso  1.000000 C
   C10        1.0     0.250151      0.500000      0.000000     Biso  1.000000 C
   C11        1.0     0.250151     -0.000000      0.500000     Biso  1.000000 C
   C12        1.0     0.749849      0.000000      0.500000     Biso  1.000000 C
   C13        1.0     0.249849      0.000000      0.000000     Biso  1.000000 C
   C14        1.0     0.750151     -0.000000      0.000000     Biso  1.000000 C
   C15        1.0     0.750151      0.500000      0.500000     Biso  1.000000 C
   C16        1.0     0.249849      0.500000      0.500000     Biso  1.000000 C
