#======================================================================

# CRYSTAL DATA

#----------------------------------------------------------------------

data_VESTA_phase_1


_chemical_name_common                  'methane-high                          '
_cell_length_a                         11.46890
_cell_length_b                         8.02212
_cell_length_c                         8.01713
_cell_angle_alpha                      90
_cell_angle_beta                       90
_cell_angle_gamma                      90
_space_group_name_H-M_alt              'P 1'
_space_group_IT_number                 1

loop_
_space_group_symop_operation_xyz
   'x, y, z'

loop_
   _atom_site_label
   _atom_site_occupancy
   _atom_site_fract_x
   _atom_site_fract_y
   _atom_site_fract_z
   _atom_site_adp_type
   _atom_site_B_iso_or_equiv
   _atom_site_type_symbol
   H1         1.0     0.805286      0.585659      0.929468     Biso  1.000000 H
   H2         1.0     0.194714      0.414341      0.070532     Biso  1.000000 H
   H3         1.0     0.194714      0.914341      0.429468     Biso  1.000000 H
   H4         1.0     0.805286      0.085659      0.570532     Biso  1.000000 H
   H5         1.0     0.194714      0.085659      0.570532     Biso  1.000000 H
   H6         1.0     0.805286      0.914341      0.429468     Biso  1.000000 H
   H7         1.0     0.805286      0.414341      0.070532     Biso  1.000000 H
   H8         1.0     0.194714      0.585659      0.929468     Biso  1.000000 H
   H9         1.0     0.305286      0.085659      0.929468     Biso  1.000000 H
   H10        1.0     0.694714      0.914341      0.070532     Biso  1.000000 H
   H11        1.0     0.694714      0.414341      0.429468     Biso  1.000000 H
   H12        1.0     0.305286      0.585659      0.570532     Biso  1.000000 H
   H13        1.0     0.694714      0.585659      0.570532     Biso  1.000000 H
   H14        1.0     0.305286      0.414341      0.429468     Biso  1.000000 H
   H15        1.0     0.305286      0.914341      0.070532     Biso  1.000000 H
   H16        1.0     0.694714      0.085659      0.929468     Biso  1.000000 H
   H17        1.0     0.694207      0.571773      0.085345     Biso  1.000000 H
   H18        1.0     0.305793      0.428227      0.914655     Biso  1.000000 H
   H19        1.0     0.305793      0.928227      0.585345     Biso  1.000000 H
   H20        1.0     0.694207      0.071773      0.414655     Biso  1.000000 H
   H21        1.0     0.305793      0.071773      0.414655     Biso  1.000000 H
   H22        1.0     0.694207      0.928227      0.585345     Biso  1.000000 H
   H23        1.0     0.694207      0.428227      0.914655     Biso  1.000000 H
   H24        1.0     0.305793      0.571773      0.085345     Biso  1.000000 H
   H25        1.0     0.194207      0.071773      0.085345     Biso  1.000000 H
   H26        1.0     0.805793      0.928227      0.914655     Biso  1.000000 H
   H27        1.0     0.805793      0.428227      0.585345     Biso  1.000000 H
   H28        1.0     0.194207      0.571773      0.414655     Biso  1.000000 H
   H29        1.0     0.805793      0.571773      0.414655     Biso  1.000000 H
   H30        1.0     0.194207      0.428227      0.585345     Biso  1.000000 H
   H31        1.0     0.194207      0.928227      0.914655     Biso  1.000000 H
   H32        1.0     0.805793      0.071773      0.085345     Biso  1.000000 H
   H33        1.0     0.082095      0.794561      0.191048     Biso  1.000000 H
   H34        1.0     0.917905      0.205439      0.808952     Biso  1.000000 H
   H35        1.0     0.917905      0.705439      0.691048     Biso  1.000000 H
   H36        1.0     0.082095      0.294561      0.308952     Biso  1.000000 H
   H37        1.0     0.917905      0.294561      0.308952     Biso  1.000000 H
   H38        1.0     0.082095      0.705439      0.691048     Biso  1.000000 H
   H39        1.0     0.082095      0.205439      0.808952     Biso  1.000000 H
   H40        1.0     0.917905      0.794561      0.191048     Biso  1.000000 H
   H41        1.0     0.582095      0.294561      0.191048     Biso  1.000000 H
   H42        1.0     0.417905      0.705439      0.808952     Biso  1.000000 H
   H43        1.0     0.417905      0.205439      0.691048     Biso  1.000000 H
   H44        1.0     0.582095      0.794561      0.308952     Biso  1.000000 H
   H45        1.0     0.417905      0.794561      0.308952     Biso  1.000000 H
   H46        1.0     0.582095      0.205439      0.691048     Biso  1.000000 H
   H47        1.0     0.582095      0.705439      0.808952     Biso  1.000000 H
   H48        1.0     0.417905      0.294561      0.191048     Biso  1.000000 H
   H49        1.0    -0.000000      0.592565      0.210388     Biso  1.000000 H
   H50        1.0    -0.000000      0.407435      0.789612     Biso  1.000000 H
   H51        1.0    -0.000000      0.907435      0.710388     Biso  1.000000 H
   H52        1.0    -0.000000      0.092565      0.289612     Biso  1.000000 H
   H53        1.0     0.500000      0.092565      0.210388     Biso  1.000000 H
   H54        1.0     0.500000      0.907435      0.789612     Biso  1.000000 H
   H55        1.0     0.500000      0.407435      0.710388     Biso  1.000000 H
   H56        1.0     0.500000      0.592565      0.289612     Biso  1.000000 H
   C1         1.0    -0.000000      0.727607      0.199380     Biso  1.000000 C
   C2         1.0    -0.000000      0.272393      0.800620     Biso  1.000000 C
   C3         1.0    -0.000000      0.772393      0.699380     Biso  1.000000 C
   C4         1.0    -0.000000      0.227607      0.300620     Biso  1.000000 C
   C5         1.0     0.500000      0.227607      0.199380     Biso  1.000000 C
   C6         1.0     0.500000      0.772393      0.800620     Biso  1.000000 C
   C7         1.0     0.500000      0.272393      0.699380     Biso  1.000000 C
   C8         1.0     0.500000      0.727607      0.300620     Biso  1.000000 C
   C9         1.0     0.749539      0.500000      0.000000     Biso  1.000000 C
   C10        1.0     0.250461      0.500000      0.000000     Biso  1.000000 C
   C11        1.0     0.250461      0.000000      0.500000     Biso  1.000000 C
   C12        1.0     0.749539      0.000000      0.500000     Biso  1.000000 C
   C13        1.0     0.249539      0.000000      0.000000     Biso  1.000000 C
   C14        1.0     0.750461      0.000000      0.000000     Biso  1.000000 C
   C15        1.0     0.750461      0.500000      0.500000     Biso  1.000000 C
   C16        1.0     0.249539      0.500000      0.500000     Biso  1.000000 C
