#======================================================================

# CRYSTAL DATA

#----------------------------------------------------------------------

data_VESTA_phase_1


_chemical_name_common                  'C6 H6                                 '
_cell_length_a                         7.15339
_cell_length_b                         9.11413
_cell_length_c                         6.51635
_cell_angle_alpha                      90
_cell_angle_beta                       90
_cell_angle_gamma                      90
_space_group_name_H-M_alt              'P 1'
_space_group_IT_number                 1

loop_
_space_group_symop_operation_xyz
   'x, y, z'

loop_
   _atom_site_label
   _atom_site_occupancy
   _atom_site_fract_x
   _atom_site_fract_y
   _atom_site_fract_z
   _atom_site_adp_type
   _atom_site_B_iso_or_equiv
   _atom_site_type_symbol
   C1         1.0     0.941599      0.146290      0.004293     Biso  1.000000 C
   C2         1.0     0.058401      0.853710     -0.004293     Biso  1.000000 C
   C3         1.0     0.558401      0.853710      0.504293     Biso  1.000000 C
   C4         1.0     0.441599      0.146290      0.495707     Biso  1.000000 C
   C5         1.0     0.058401      0.646290      0.495707     Biso  1.000000 C
   C6         1.0     0.941599      0.353710      0.504293     Biso  1.000000 C
   C7         1.0     0.441599      0.353710     -0.004293     Biso  1.000000 C
   C8         1.0     0.558401      0.646290      0.004293     Biso  1.000000 C
   C9         1.0     0.080845      0.097833      0.138356     Biso  1.000000 C
   C10        1.0     0.919155      0.902167      0.861644     Biso  1.000000 C
   C11        1.0     0.419155      0.902167      0.638356     Biso  1.000000 C
   C12        1.0     0.580845      0.097833      0.361644     Biso  1.000000 C
   C13        1.0     0.919155      0.597833      0.361644     Biso  1.000000 C
   C14        1.0     0.080845      0.402167      0.638356     Biso  1.000000 C
   C15        1.0     0.580845      0.402167      0.861644     Biso  1.000000 C
   C16        1.0     0.419155      0.597833      0.138356     Biso  1.000000 C
   C17        1.0     0.860179      0.048208      0.865850     Biso  1.000000 C
   C18        1.0     0.139821      0.951792      0.134150     Biso  1.000000 C
   C19        1.0     0.639821      0.951792      0.365850     Biso  1.000000 C
   C20        1.0     0.360179      0.048208      0.634150     Biso  1.000000 C
   C21        1.0     0.139821      0.548208      0.634150     Biso  1.000000 C
   C22        1.0     0.860179      0.451792      0.365850     Biso  1.000000 C
   C23        1.0     0.360179      0.451792      0.134150     Biso  1.000000 C
   C24        1.0     0.639821      0.548208      0.865850     Biso  1.000000 C
   H1         1.0     0.896720      0.260549      0.007908     Biso  1.000000 H
   H2         1.0     0.103280      0.739451     -0.007908     Biso  1.000000 H
   H3         1.0     0.603280      0.739451      0.507908     Biso  1.000000 H
   H4         1.0     0.396720      0.260549      0.492092     Biso  1.000000 H
   H5         1.0     0.103280      0.760549      0.492092     Biso  1.000000 H
   H6         1.0     0.896720      0.239451      0.507908     Biso  1.000000 H
   H7         1.0     0.396720      0.239451     -0.007908     Biso  1.000000 H
   H8         1.0     0.603280      0.760549      0.007908     Biso  1.000000 H
   H9         1.0     0.143395      0.173589      0.247625     Biso  1.000000 H
   H10        1.0     0.856605      0.826411      0.752375     Biso  1.000000 H
   H11        1.0     0.356605      0.826411      0.747625     Biso  1.000000 H
   H12        1.0     0.643395      0.173589      0.252375     Biso  1.000000 H
   H13        1.0     0.856605      0.673589      0.252375     Biso  1.000000 H
   H14        1.0     0.143395      0.326411      0.747625     Biso  1.000000 H
   H15        1.0     0.643395      0.326411      0.752375     Biso  1.000000 H
   H16        1.0     0.356605      0.673589      0.247625     Biso  1.000000 H
   H17        1.0     0.750328      0.084215      0.761427     Biso  1.000000 H
   H18        1.0     0.249672      0.915785      0.238573     Biso  1.000000 H
   H19        1.0     0.749672      0.915785      0.261427     Biso  1.000000 H
   H20        1.0     0.250328      0.084215      0.738573     Biso  1.000000 H
   H21        1.0     0.249672      0.584215      0.738573     Biso  1.000000 H
   H22        1.0     0.750328      0.415785      0.261427     Biso  1.000000 H
   H23        1.0     0.250328      0.415785      0.238573     Biso  1.000000 H
   H24        1.0     0.749672      0.584215      0.761427     Biso  1.000000 H
