#======================================================================

# CRYSTAL DATA

#----------------------------------------------------------------------

data_VESTA_phase_1


_chemical_name_common                  'methane-low                           '
_cell_length_a                         11.38697
_cell_length_b                         7.96482
_cell_length_c                         7.95986
_cell_angle_alpha                      90
_cell_angle_beta                       90
_cell_angle_gamma                      90
_space_group_name_H-M_alt              'P 1'
_space_group_IT_number                 1

loop_
_space_group_symop_operation_xyz
   'x, y, z'

loop_
   _atom_site_label
   _atom_site_occupancy
   _atom_site_fract_x
   _atom_site_fract_y
   _atom_site_fract_z
   _atom_site_adp_type
   _atom_site_B_iso_or_equiv
   _atom_site_type_symbol
   H1         1.0     0.078739      0.818954      0.166595     Biso  1.000000 H
   H2         1.0     0.921261      0.181046      0.833405     Biso  1.000000 H
   H3         1.0     0.921261      0.681046      0.666595     Biso  1.000000 H
   H4         1.0     0.078739      0.318954      0.333405     Biso  1.000000 H
   H5         1.0     0.921261      0.318954      0.333405     Biso  1.000000 H
   H6         1.0     0.078739      0.681046      0.666595     Biso  1.000000 H
   H7         1.0     0.078739      0.181046      0.833405     Biso  1.000000 H
   H8         1.0     0.921261      0.818954      0.166595     Biso  1.000000 H
   H9         1.0     0.578739      0.318954      0.166595     Biso  1.000000 H
   H10        1.0     0.421261      0.681046      0.833405     Biso  1.000000 H
   H11        1.0     0.421261      0.181046      0.666595     Biso  1.000000 H
   H12        1.0     0.578739      0.818954      0.333405     Biso  1.000000 H
   H13        1.0     0.421261      0.818954      0.333405     Biso  1.000000 H
   H14        1.0     0.578739      0.181046      0.666595     Biso  1.000000 H
   H15        1.0     0.578739      0.681046      0.833405     Biso  1.000000 H
   H16        1.0     0.421261      0.318954      0.166595     Biso  1.000000 H
   H17        1.0     0.813569      0.587263      0.929505     Biso  1.000000 H
   H18        1.0     0.186431      0.412737      0.070495     Biso  1.000000 H
   H19        1.0     0.186431      0.912737      0.429505     Biso  1.000000 H
   H20        1.0     0.813569      0.087263      0.570495     Biso  1.000000 H
   H21        1.0     0.186431      0.087263      0.570495     Biso  1.000000 H
   H22        1.0     0.813569      0.912737      0.429505     Biso  1.000000 H
   H23        1.0     0.813569      0.412737      0.070495     Biso  1.000000 H
   H24        1.0     0.186431      0.587263      0.929505     Biso  1.000000 H
   H25        1.0     0.313569      0.087263      0.929505     Biso  1.000000 H
   H26        1.0     0.686431      0.912737      0.070495     Biso  1.000000 H
   H27        1.0     0.686431      0.412737      0.429505     Biso  1.000000 H
   H28        1.0     0.313569      0.587263      0.570495     Biso  1.000000 H
   H29        1.0     0.686431      0.587263      0.570495     Biso  1.000000 H
   H30        1.0     0.313569      0.412737      0.429505     Biso  1.000000 H
   H31        1.0     0.313569      0.912737      0.070495     Biso  1.000000 H
   H32        1.0     0.686431      0.087263      0.929505     Biso  1.000000 H
   H33        1.0     0.702507      0.570768      0.087147     Biso  1.000000 H
   H34        1.0     0.297493      0.429232      0.912853     Biso  1.000000 H
   H35        1.0     0.297493      0.929232      0.587147     Biso  1.000000 H
   H36        1.0     0.702507      0.070768      0.412853     Biso  1.000000 H
   H37        1.0     0.297493      0.070768      0.412853     Biso  1.000000 H
   H38        1.0     0.702507      0.929232      0.587147     Biso  1.000000 H
   H39        1.0     0.702507      0.429232      0.912853     Biso  1.000000 H
   H40        1.0     0.297493      0.570768      0.087147     Biso  1.000000 H
   H41        1.0     0.202507      0.070768      0.087147     Biso  1.000000 H
   H42        1.0     0.797493      0.929232      0.912853     Biso  1.000000 H
   H43        1.0     0.797493      0.429232      0.587147     Biso  1.000000 H
   H44        1.0     0.202507      0.570768      0.412853     Biso  1.000000 H
   H45        1.0     0.797493      0.570768      0.412853     Biso  1.000000 H
   H46        1.0     0.202507      0.429232      0.587147     Biso  1.000000 H
   H47        1.0     0.202507      0.929232      0.912853     Biso  1.000000 H
   H48        1.0     0.797493      0.070768      0.087147     Biso  1.000000 H
   H49        1.0    -0.000000      0.625881      0.142312     Biso  1.000000 H
   H50        1.0    -0.000000      0.374119      0.857688     Biso  1.000000 H
   H51        1.0    -0.000000      0.874119      0.642312     Biso  1.000000 H
   H52        1.0    -0.000000      0.125881      0.357688     Biso  1.000000 H
   H53        1.0     0.500000      0.125881      0.142312     Biso  1.000000 H
   H54        1.0     0.500000      0.874119      0.857688     Biso  1.000000 H
   H55        1.0     0.500000      0.374119      0.642312     Biso  1.000000 H
   H56        1.0     0.500000      0.625881      0.357688     Biso  1.000000 H
   H57        1.0    -0.000000      0.277941      0.522678     Biso  1.000000 H
   H58        1.0    -0.000000      0.722059      0.477322     Biso  1.000000 H
   H59        1.0    -0.000000      0.222059      0.022678     Biso  1.000000 H
   H60        1.0    -0.000000      0.777941      0.977322     Biso  1.000000 H
   H61        1.0     0.500000      0.777941      0.522678     Biso  1.000000 H
   H62        1.0     0.500000      0.222059      0.477322     Biso  1.000000 H
   H63        1.0     0.500000      0.722059      0.022678     Biso  1.000000 H
   H64        1.0     0.500000      0.277941      0.977322     Biso  1.000000 H
   C1         1.0    -0.000000      0.260400      0.386265     Biso  1.000000 C
   C2         1.0    -0.000000      0.739600      0.613735     Biso  1.000000 C
   C3         1.0    -0.000000      0.239600      0.886265     Biso  1.000000 C
   C4         1.0    -0.000000      0.760400      0.113735     Biso  1.000000 C
   C5         1.0     0.500000      0.760400      0.386265     Biso  1.000000 C
   C6         1.0     0.500000      0.239600      0.613735     Biso  1.000000 C
   C7         1.0     0.500000      0.739600      0.886265     Biso  1.000000 C
   C8         1.0     0.500000      0.260400      0.113735     Biso  1.000000 C
   C9         1.0     0.758014      0.500000     -0.000000     Biso  1.000000 C
   C10        1.0     0.241986      0.500000     -0.000000     Biso  1.000000 C
   C11        1.0     0.241986      0.000000      0.500000     Biso  1.000000 C
   C12        1.0     0.758014      0.000000      0.500000     Biso  1.000000 C
   C13        1.0     0.258014      0.000000     -0.000000     Biso  1.000000 C
   C14        1.0     0.741986      0.000000     -0.000000     Biso  1.000000 C
   C15        1.0     0.741986      0.500000      0.500000     Biso  1.000000 C
   C16        1.0     0.258014      0.500000      0.500000     Biso  1.000000 C
