#======================================================================

# CRYSTAL DATA

#----------------------------------------------------------------------

data_VESTA_phase_1


_chemical_name_common                  'methane-low                           '
_cell_length_a                         11.30385
_cell_length_b                         7.90668
_cell_length_c                         7.90176
_cell_angle_alpha                      90
_cell_angle_beta                       90
_cell_angle_gamma                      90
_space_group_name_H-M_alt              'P 1'
_space_group_IT_number                 1

loop_
_space_group_symop_operation_xyz
   'x, y, z'

loop_
   _atom_site_label
   _atom_site_occupancy
   _atom_site_fract_x
   _atom_site_fract_y
   _atom_site_fract_z
   _atom_site_adp_type
   _atom_site_B_iso_or_equiv
   _atom_site_type_symbol
   H1         1.0     0.079279      0.811588      0.217047     Biso  1.000000 H
   H2         1.0     0.920721      0.188412      0.782953     Biso  1.000000 H
   H3         1.0     0.920721      0.688412      0.717047     Biso  1.000000 H
   H4         1.0     0.079279      0.311588      0.282953     Biso  1.000000 H
   H5         1.0     0.920721      0.311588      0.282953     Biso  1.000000 H
   H6         1.0     0.079279      0.688412      0.717047     Biso  1.000000 H
   H7         1.0     0.079279      0.188412      0.782953     Biso  1.000000 H
   H8         1.0     0.920721      0.811588      0.217047     Biso  1.000000 H
   H9         1.0     0.579279      0.311588      0.217047     Biso  1.000000 H
   H10        1.0     0.420721      0.688412      0.782953     Biso  1.000000 H
   H11        1.0     0.420721      0.188412      0.717047     Biso  1.000000 H
   H12        1.0     0.579279      0.811588      0.282953     Biso  1.000000 H
   H13        1.0     0.420721      0.811588      0.282953     Biso  1.000000 H
   H14        1.0     0.579279      0.188412      0.717047     Biso  1.000000 H
   H15        1.0     0.579279      0.688412      0.782953     Biso  1.000000 H
   H16        1.0     0.420721      0.311588      0.217047     Biso  1.000000 H
   H17        1.0     0.811916      0.585539      0.926456     Biso  1.000000 H
   H18        1.0     0.188084      0.414461      0.073544     Biso  1.000000 H
   H19        1.0     0.188084      0.914461      0.426456     Biso  1.000000 H
   H20        1.0     0.811916      0.085539      0.573544     Biso  1.000000 H
   H21        1.0     0.188084      0.085539      0.573544     Biso  1.000000 H
   H22        1.0     0.811916      0.914461      0.426456     Biso  1.000000 H
   H23        1.0     0.811916      0.414461      0.073544     Biso  1.000000 H
   H24        1.0     0.188084      0.585539      0.926456     Biso  1.000000 H
   H25        1.0     0.311916      0.085539      0.926456     Biso  1.000000 H
   H26        1.0     0.688084      0.914461      0.073544     Biso  1.000000 H
   H27        1.0     0.688084      0.414461      0.426456     Biso  1.000000 H
   H28        1.0     0.311916      0.585539      0.573544     Biso  1.000000 H
   H29        1.0     0.688084      0.585539      0.573544     Biso  1.000000 H
   H30        1.0     0.311916      0.414461      0.426456     Biso  1.000000 H
   H31        1.0     0.311916      0.914461      0.073544     Biso  1.000000 H
   H32        1.0     0.688084      0.085539      0.926456     Biso  1.000000 H
   H33        1.0     0.699999      0.574027      0.085620     Biso  1.000000 H
   H34        1.0     0.300001      0.425973      0.914380     Biso  1.000000 H
   H35        1.0     0.300001      0.925973      0.585620     Biso  1.000000 H
   H36        1.0     0.699999      0.074027      0.414380     Biso  1.000000 H
   H37        1.0     0.300001      0.074027      0.414380     Biso  1.000000 H
   H38        1.0     0.699999      0.925973      0.585620     Biso  1.000000 H
   H39        1.0     0.699999      0.425973      0.914380     Biso  1.000000 H
   H40        1.0     0.300001      0.574027      0.085620     Biso  1.000000 H
   H41        1.0     0.199999      0.074027      0.085620     Biso  1.000000 H
   H42        1.0     0.800001      0.925973      0.914380     Biso  1.000000 H
   H43        1.0     0.800001      0.425973      0.585620     Biso  1.000000 H
   H44        1.0     0.199999      0.574027      0.414380     Biso  1.000000 H
   H45        1.0     0.800001      0.574027      0.414380     Biso  1.000000 H
   H46        1.0     0.199999      0.425973      0.585620     Biso  1.000000 H
   H47        1.0     0.199999      0.925973      0.914380     Biso  1.000000 H
   H48        1.0     0.800001      0.074027      0.085620     Biso  1.000000 H
   H49        1.0     0.000000      0.618217      0.184149     Biso  1.000000 H
   H50        1.0     0.000000      0.381783      0.815851     Biso  1.000000 H
   H51        1.0     0.000000      0.881783      0.684149     Biso  1.000000 H
   H52        1.0     0.000000      0.118217      0.315851     Biso  1.000000 H
   H53        1.0     0.500000      0.118217      0.184149     Biso  1.000000 H
   H54        1.0     0.500000      0.881783      0.815851     Biso  1.000000 H
   H55        1.0     0.500000      0.381783      0.684149     Biso  1.000000 H
   H56        1.0     0.500000      0.618217      0.315851     Biso  1.000000 H
   H57        1.0     0.000000      0.278820      0.475084     Biso  1.000000 H
   H58        1.0     0.000000      0.721180      0.524916     Biso  1.000000 H
   H59        1.0     0.000000      0.221180      0.975084     Biso  1.000000 H
   H60        1.0     0.000000      0.778820      0.024916     Biso  1.000000 H
   H61        1.0     0.500000      0.778820      0.475084     Biso  1.000000 H
   H62        1.0     0.500000      0.221180      0.524916     Biso  1.000000 H
   H63        1.0     0.500000      0.721180      0.975084     Biso  1.000000 H
   H64        1.0     0.500000      0.278820      0.024916     Biso  1.000000 H
   C1         1.0     0.000000      0.254747      0.338696     Biso  1.000000 C
   C2         1.0     0.000000      0.745253      0.661304     Biso  1.000000 C
   C3         1.0     0.000000      0.245253      0.838696     Biso  1.000000 C
   C4         1.0     0.000000      0.754747      0.161304     Biso  1.000000 C
   C5         1.0     0.500000      0.754747      0.338696     Biso  1.000000 C
   C6         1.0     0.500000      0.245253      0.661304     Biso  1.000000 C
   C7         1.0     0.500000      0.745253      0.838696     Biso  1.000000 C
   C8         1.0     0.500000      0.254747      0.161304     Biso  1.000000 C
   C9         1.0     0.755796      0.500000      0.000000     Biso  1.000000 C
   C10        1.0     0.244204      0.500000      0.000000     Biso  1.000000 C
   C11        1.0     0.244204      0.000000      0.500000     Biso  1.000000 C
   C12        1.0     0.755796      0.000000      0.500000     Biso  1.000000 C
   C13        1.0     0.255796      0.000000      0.000000     Biso  1.000000 C
   C14        1.0     0.744204      0.000000      0.000000     Biso  1.000000 C
   C15        1.0     0.744204      0.500000      0.500000     Biso  1.000000 C
   C16        1.0     0.255796      0.500000      0.500000     Biso  1.000000 C
