#======================================================================

# CRYSTAL DATA

#----------------------------------------------------------------------

data_VESTA_phase_1


_chemical_name_common                  'C6 H6                                 '
_cell_length_a                         6.46774
_cell_length_b                         8.24054
_cell_length_c                         5.89175
_cell_angle_alpha                      90
_cell_angle_beta                       90
_cell_angle_gamma                      90
_space_group_name_H-M_alt              'P 1'
_space_group_IT_number                 1

loop_
_space_group_symop_operation_xyz
   'x, y, z'

loop_
   _atom_site_label
   _atom_site_occupancy
   _atom_site_fract_x
   _atom_site_fract_y
   _atom_site_fract_z
   _atom_site_adp_type
   _atom_site_B_iso_or_equiv
   _atom_site_type_symbol
   C1         1.0     0.932102      0.159849      0.008715     Biso  1.000000 C
   C2         1.0     0.067898      0.840151     -0.008715     Biso  1.000000 C
   C3         1.0     0.567898      0.840151      0.508715     Biso  1.000000 C
   C4         1.0     0.432102      0.159849      0.491285     Biso  1.000000 C
   C5         1.0     0.067898      0.659849      0.491285     Biso  1.000000 C
   C6         1.0     0.932102      0.340151      0.508715     Biso  1.000000 C
   C7         1.0     0.432102      0.340151     -0.008715     Biso  1.000000 C
   C8         1.0     0.567898      0.659849      0.008715     Biso  1.000000 C
   C9         1.0     0.088812      0.106890      0.150623     Biso  1.000000 C
   C10        1.0     0.911188      0.893110      0.849377     Biso  1.000000 C
   C11        1.0     0.411188      0.893110      0.650623     Biso  1.000000 C
   C12        1.0     0.588812      0.106890      0.349377     Biso  1.000000 C
   C13        1.0     0.911188      0.606890      0.349377     Biso  1.000000 C
   C14        1.0     0.088812      0.393110      0.650623     Biso  1.000000 C
   C15        1.0     0.588812      0.393110      0.849377     Biso  1.000000 C
   C16        1.0     0.411188      0.606890      0.150623     Biso  1.000000 C
   C17        1.0     0.840538      0.051716      0.858913     Biso  1.000000 C
   C18        1.0     0.159462      0.948284      0.141087     Biso  1.000000 C
   C19        1.0     0.659462      0.948284      0.358913     Biso  1.000000 C
   C20        1.0     0.340538      0.051716      0.641087     Biso  1.000000 C
   C21        1.0     0.159462      0.551716      0.641087     Biso  1.000000 C
   C22        1.0     0.840538      0.448284      0.358913     Biso  1.000000 C
   C23        1.0     0.340538      0.448284      0.141087     Biso  1.000000 C
   C24        1.0     0.659462      0.551716      0.858913     Biso  1.000000 C
   H1         1.0     0.882657      0.285465      0.015835     Biso  1.000000 H
   H2         1.0     0.117343      0.714535     -0.015835     Biso  1.000000 H
   H3         1.0     0.617343      0.714535      0.515835     Biso  1.000000 H
   H4         1.0     0.382657      0.285465      0.484165     Biso  1.000000 H
   H5         1.0     0.117343      0.785465      0.484165     Biso  1.000000 H
   H6         1.0     0.882657      0.214535      0.515835     Biso  1.000000 H
   H7         1.0     0.382657      0.214535     -0.015835     Biso  1.000000 H
   H8         1.0     0.617343      0.785465      0.015835     Biso  1.000000 H
   H9         1.0     0.157301      0.189446      0.271042     Biso  1.000000 H
   H10        1.0     0.842699      0.810554      0.728958     Biso  1.000000 H
   H11        1.0     0.342699      0.810554      0.771042     Biso  1.000000 H
   H12        1.0     0.657301      0.189446      0.228958     Biso  1.000000 H
   H13        1.0     0.842699      0.689446      0.228958     Biso  1.000000 H
   H14        1.0     0.157301      0.310554      0.771042     Biso  1.000000 H
   H15        1.0     0.657301      0.310554      0.728958     Biso  1.000000 H
   H16        1.0     0.342699      0.689446      0.271042     Biso  1.000000 H
   H17        1.0     0.712186      0.087469      0.752172     Biso  1.000000 H
   H18        1.0     0.287814      0.912531      0.247828     Biso  1.000000 H
   H19        1.0     0.787814      0.912531      0.252172     Biso  1.000000 H
   H20        1.0     0.212186      0.087469      0.747828     Biso  1.000000 H
   H21        1.0     0.287814      0.587469      0.747828     Biso  1.000000 H
   H22        1.0     0.712186      0.412531      0.252172     Biso  1.000000 H
   H23        1.0     0.212186      0.412531      0.247828     Biso  1.000000 H
   H24        1.0     0.787814      0.587469      0.752172     Biso  1.000000 H
