#======================================================================

# CRYSTAL DATA

#----------------------------------------------------------------------

data_VESTA_phase_1


_chemical_name_common                  'C2 H4                                 '
_cell_length_a                         4.96551
_cell_length_b                         6.58670
_cell_length_c                         4.22120
_cell_angle_alpha                      90
_cell_angle_beta                       90
_cell_angle_gamma                      90
_space_group_name_H-M_alt              'P 1'
_space_group_IT_number                 1

loop_
_space_group_symop_operation_xyz
   'x, y, z'

loop_
   _atom_site_label
   _atom_site_occupancy
   _atom_site_fract_x
   _atom_site_fract_y
   _atom_site_fract_z
   _atom_site_adp_type
   _atom_site_B_iso_or_equiv
   _atom_site_type_symbol
   C1         1.0     0.889221      0.052973      0.965284     Biso  1.000000 C
   C2         1.0     0.110779      0.947027      0.034716     Biso  1.000000 C
   C3         1.0     0.610779      0.552973      0.534716     Biso  1.000000 C
   C4         1.0     0.389221      0.447027      0.465284     Biso  1.000000 C
   H1         1.0     0.810449      0.172043      0.120083     Biso  1.000000 H
   H2         1.0     0.189551      0.827957      0.879917     Biso  1.000000 H
   H3         1.0     0.689551      0.672043      0.379917     Biso  1.000000 H
   H4         1.0     0.310449      0.327957      0.620083     Biso  1.000000 H
   H5         1.0     0.774636      0.025765      0.748517     Biso  1.000000 H
   H6         1.0     0.225364      0.974235      0.251483     Biso  1.000000 H
   H7         1.0     0.725364      0.525765      0.751483     Biso  1.000000 H
   H8         1.0     0.274636      0.474235      0.248517     Biso  1.000000 H
