#======================================================================

# CRYSTAL DATA

#----------------------------------------------------------------------

data_VESTA_phase_1


_chemical_name_common                  'C2 H4                                 '
_cell_length_a                         4.93409
_cell_length_b                         6.54501
_cell_length_c                         4.19448
_cell_angle_alpha                      90
_cell_angle_beta                       90
_cell_angle_gamma                      90
_space_group_name_H-M_alt              'P 1'
_space_group_IT_number                 1

loop_
_space_group_symop_operation_xyz
   'x, y, z'

loop_
   _atom_site_label
   _atom_site_occupancy
   _atom_site_fract_x
   _atom_site_fract_y
   _atom_site_fract_z
   _atom_site_adp_type
   _atom_site_B_iso_or_equiv
   _atom_site_type_symbol
   C1         1.0     0.888535      0.053170      0.964772     Biso  1.000000 C
   C2         1.0     0.111465      0.946830      0.035228     Biso  1.000000 C
   C3         1.0     0.611465      0.553170      0.535228     Biso  1.000000 C
   C4         1.0     0.388535      0.446830      0.464772     Biso  1.000000 C
   H1         1.0     0.810806      0.172548      0.121897     Biso  1.000000 H
   H2         1.0     0.189194      0.827452      0.878103     Biso  1.000000 H
   H3         1.0     0.689194      0.672548      0.378103     Biso  1.000000 H
   H4         1.0     0.310806      0.327452      0.621897     Biso  1.000000 H
   H5         1.0     0.774129      0.025174      0.746483     Biso  1.000000 H
   H6         1.0     0.225871      0.974826      0.253517     Biso  1.000000 H
   H7         1.0     0.725871      0.525174      0.753517     Biso  1.000000 H
   H8         1.0     0.274129      0.474826      0.246483     Biso  1.000000 H
