#======================================================================

# CRYSTAL DATA

#----------------------------------------------------------------------

data_VESTA_phase_1


_chemical_name_common                  'C2 H4                                 '
_cell_length_a                         4.90225
_cell_length_b                         6.50278
_cell_length_c                         4.16742
_cell_angle_alpha                      90
_cell_angle_beta                       90
_cell_angle_gamma                      90
_space_group_name_H-M_alt              'P 1'
_space_group_IT_number                 1

loop_
_space_group_symop_operation_xyz
   'x, y, z'

loop_
   _atom_site_label
   _atom_site_occupancy
   _atom_site_fract_x
   _atom_site_fract_y
   _atom_site_fract_z
   _atom_site_adp_type
   _atom_site_B_iso_or_equiv
   _atom_site_type_symbol
   C1         1.0     0.887816      0.053585      0.964718     Biso  1.000000 C
   C2         1.0     0.112184      0.946415      0.035282     Biso  1.000000 C
   C3         1.0     0.612184      0.553585      0.535282     Biso  1.000000 C
   C4         1.0     0.387816      0.446415      0.464718     Biso  1.000000 C
   H1         1.0     0.808441      0.174108      0.121885     Biso  1.000000 H
   H2         1.0     0.191559      0.825892      0.878115     Biso  1.000000 H
   H3         1.0     0.691559      0.674108      0.378115     Biso  1.000000 H
   H4         1.0     0.308441      0.325892      0.621885     Biso  1.000000 H
   H5         1.0     0.771902      0.025945      0.745203     Biso  1.000000 H
   H6         1.0     0.228098      0.974055      0.254797     Biso  1.000000 H
   H7         1.0     0.728098      0.525945      0.754797     Biso  1.000000 H
   H8         1.0     0.271902      0.474055      0.245203     Biso  1.000000 H
