#======================================================================

# CRYSTAL DATA

#----------------------------------------------------------------------

data_VESTA_phase_1


_chemical_name_common                  'raw                                   '
_cell_length_a                         20.00000
_cell_length_b                         20.00000
_cell_length_c                         20.00000
_cell_angle_alpha                      90
_cell_angle_beta                       90
_cell_angle_gamma                      90
_space_group_name_H-M_alt              'P 1'
_space_group_IT_number                 1

loop_
_space_group_symop_operation_xyz
   'x, y, z'

loop_
   _atom_site_label
   _atom_site_occupancy
   _atom_site_fract_x
   _atom_site_fract_y
   _atom_site_fract_z
   _atom_site_adp_type
   _atom_site_B_iso_or_equiv
   _atom_site_type_symbol
   C1         1.0     0.149188      0.178845      0.110899     Biso  1.000000 C
   C2         1.0     0.094312      0.144155      0.096101     Biso  1.000000 C
   H1         1.0     0.168509      0.217993      0.078049     Biso  1.000000 H
   H2         1.0     0.074991      0.105007      0.128951     Biso  1.000000 H
   H3         1.0     0.177571      0.169862      0.156595     Biso  1.000000 H
   H4         1.0     0.065929      0.153138      0.050405     Biso  1.000000 H
