#======================================================================

# CRYSTAL DATA

#----------------------------------------------------------------------

data_VESTA_phase_1


_chemical_name_common                  'C2 H4                                 '
_cell_length_a                         4.87000
_cell_length_b                         6.46000
_cell_length_c                         4.14000
_cell_angle_alpha                      90
_cell_angle_beta                       90
_cell_angle_gamma                      90
_space_group_name_H-M_alt              'P 1'
_space_group_IT_number                 1

loop_
_space_group_symop_operation_xyz
   'x, y, z'

loop_
   _atom_site_label
   _atom_site_occupancy
   _atom_site_fract_x
   _atom_site_fract_y
   _atom_site_fract_z
   _atom_site_adp_type
   _atom_site_B_iso_or_equiv
   _atom_site_type_symbol
   C1         1.0     0.887059      0.053948      0.964492     Biso  1.000000 C
   C2         1.0     0.112941      0.946052      0.035508     Biso  1.000000 C
   C3         1.0     0.612941      0.553948      0.535508     Biso  1.000000 C
   C4         1.0     0.387059      0.446052      0.464492     Biso  1.000000 C
   H1         1.0     0.807382      0.175219      0.122893     Biso  1.000000 H
   H2         1.0     0.192618      0.824781      0.877107     Biso  1.000000 H
   H3         1.0     0.692618      0.675219      0.377107     Biso  1.000000 H
   H4         1.0     0.307382      0.324781      0.622893     Biso  1.000000 H
   H5         1.0     0.770508      0.025993      0.743429     Biso  1.000000 H
   H6         1.0     0.229492      0.974007      0.256571     Biso  1.000000 H
   H7         1.0     0.729492      0.525993      0.756571     Biso  1.000000 H
   H8         1.0     0.270508      0.474007      0.243429     Biso  1.000000 H
