#======================================================================

# CRYSTAL DATA

#----------------------------------------------------------------------

data_VESTA_phase_1


_chemical_name_common                  'C2 H4                                 '
_cell_length_a                         4.83731
_cell_length_b                         6.41664
_cell_length_c                         4.11221
_cell_angle_alpha                      90
_cell_angle_beta                       90
_cell_angle_gamma                      90
_space_group_name_H-M_alt              'P 1'
_space_group_IT_number                 1

loop_
_space_group_symop_operation_xyz
   'x, y, z'

loop_
   _atom_site_label
   _atom_site_occupancy
   _atom_site_fract_x
   _atom_site_fract_y
   _atom_site_fract_z
   _atom_site_adp_type
   _atom_site_B_iso_or_equiv
   _atom_site_type_symbol
   C1         1.0     0.886237      0.054331      0.964219     Biso  1.000000 C
   C2         1.0     0.113763      0.945669      0.035781     Biso  1.000000 C
   C3         1.0     0.613763      0.554331      0.535781     Biso  1.000000 C
   C4         1.0     0.386237      0.445669      0.464219     Biso  1.000000 C
   H1         1.0     0.806329      0.176371      0.124013     Biso  1.000000 H
   H2         1.0     0.193671      0.823629      0.875987     Biso  1.000000 H
   H3         1.0     0.693671      0.676371      0.375987     Biso  1.000000 H
   H4         1.0     0.306329      0.323629      0.624013     Biso  1.000000 H
   H5         1.0     0.769187      0.026004      0.741661     Biso  1.000000 H
   H6         1.0     0.230813      0.973996      0.258339     Biso  1.000000 H
   H7         1.0     0.730813      0.526004      0.758339     Biso  1.000000 H
   H8         1.0     0.269187      0.473996      0.241661     Biso  1.000000 H
