#======================================================================

# CRYSTAL DATA

#----------------------------------------------------------------------

data_VESTA_phase_1


_chemical_name_common                  'C2 H4                                 '
_cell_length_a                         4.80418
_cell_length_b                         6.37269
_cell_length_c                         4.08405
_cell_angle_alpha                      90
_cell_angle_beta                       90
_cell_angle_gamma                      90
_space_group_name_H-M_alt              'P 1'
_space_group_IT_number                 1

loop_
_space_group_symop_operation_xyz
   'x, y, z'

loop_
   _atom_site_label
   _atom_site_occupancy
   _atom_site_fract_x
   _atom_site_fract_y
   _atom_site_fract_z
   _atom_site_adp_type
   _atom_site_B_iso_or_equiv
   _atom_site_type_symbol
   C1         1.0     0.885548      0.054569      0.963813     Biso  1.000000 C
   C2         1.0     0.114452      0.945431      0.036187     Biso  1.000000 C
   C3         1.0     0.614452      0.554569      0.536187     Biso  1.000000 C
   C4         1.0     0.385548      0.445431      0.463813     Biso  1.000000 C
   H1         1.0     0.805113      0.177550      0.124861     Biso  1.000000 H
   H2         1.0     0.194887      0.822450      0.875139     Biso  1.000000 H
   H3         1.0     0.694887      0.677550      0.375139     Biso  1.000000 H
   H4         1.0     0.305113      0.322450      0.624861     Biso  1.000000 H
   H5         1.0     0.767242      0.026257      0.739588     Biso  1.000000 H
   H6         1.0     0.232758      0.973743      0.260412     Biso  1.000000 H
   H7         1.0     0.732758      0.526257      0.760412     Biso  1.000000 H
   H8         1.0     0.267242      0.473743      0.239588     Biso  1.000000 H
