#======================================================================

# CRYSTAL DATA

#----------------------------------------------------------------------

data_VESTA_phase_1


_chemical_name_common                  'C2 H4                                 '
_cell_length_a                         4.77058
_cell_length_b                         6.32813
_cell_length_c                         4.05549
_cell_angle_alpha                      90
_cell_angle_beta                       90
_cell_angle_gamma                      90
_space_group_name_H-M_alt              'P 1'
_space_group_IT_number                 1

loop_
_space_group_symop_operation_xyz
   'x, y, z'

loop_
   _atom_site_label
   _atom_site_occupancy
   _atom_site_fract_x
   _atom_site_fract_y
   _atom_site_fract_z
   _atom_site_adp_type
   _atom_site_B_iso_or_equiv
   _atom_site_type_symbol
   C1         1.0     0.884733      0.055023      0.963707     Biso  1.000000 C
   C2         1.0     0.115267      0.944977      0.036293     Biso  1.000000 C
   C3         1.0     0.615267      0.555023      0.536293     Biso  1.000000 C
   C4         1.0     0.384733      0.444977      0.463707     Biso  1.000000 C
   H1         1.0     0.804157      0.178595      0.125938     Biso  1.000000 H
   H2         1.0     0.195843      0.821405      0.874062     Biso  1.000000 H
   H3         1.0     0.695843      0.678595      0.374062     Biso  1.000000 H
   H4         1.0     0.304157      0.321405      0.625938     Biso  1.000000 H
   H5         1.0     0.766167      0.026207      0.738025     Biso  1.000000 H
   H6         1.0     0.233833      0.973794      0.261975     Biso  1.000000 H
   H7         1.0     0.733833      0.526206      0.761975     Biso  1.000000 H
   H8         1.0     0.266167      0.473793      0.238025     Biso  1.000000 H
