#======================================================================

# CRYSTAL DATA

#----------------------------------------------------------------------

data_VESTA_phase_1


_chemical_name_common                  'C2 H4                                 '
_cell_length_a                         4.73651
_cell_length_b                         6.28292
_cell_length_c                         4.02652
_cell_angle_alpha                      90
_cell_angle_beta                       90
_cell_angle_gamma                      90
_space_group_name_H-M_alt              'P 1'
_space_group_IT_number                 1

loop_
_space_group_symop_operation_xyz
   'x, y, z'

loop_
   _atom_site_label
   _atom_site_occupancy
   _atom_site_fract_x
   _atom_site_fract_y
   _atom_site_fract_z
   _atom_site_adp_type
   _atom_site_B_iso_or_equiv
   _atom_site_type_symbol
   C1         1.0     0.883919      0.055387      0.963404     Biso  1.000000 C
   C2         1.0     0.116081      0.944613      0.036596     Biso  1.000000 C
   C3         1.0     0.616081      0.555387      0.536596     Biso  1.000000 C
   C4         1.0     0.383919      0.444613      0.463404     Biso  1.000000 C
   H1         1.0     0.803035      0.179782      0.127016     Biso  1.000000 H
   H2         1.0     0.196965      0.820218      0.872984     Biso  1.000000 H
   H3         1.0     0.696965      0.679782      0.372984     Biso  1.000000 H
   H4         1.0     0.303035      0.320218      0.627016     Biso  1.000000 H
   H5         1.0     0.764606      0.026282      0.736079     Biso  1.000000 H
   H6         1.0     0.235394      0.973718      0.263921     Biso  1.000000 H
   H7         1.0     0.735394      0.526282      0.763921     Biso  1.000000 H
   H8         1.0     0.264606      0.473718      0.236079     Biso  1.000000 H
