#======================================================================

# CRYSTAL DATA

#----------------------------------------------------------------------

data_VESTA_phase_1


_chemical_name_common                  'C2 H4                                 '
_cell_length_a                         4.70193
_cell_length_b                         6.23706
_cell_length_c                         3.99713
_cell_angle_alpha                      90
_cell_angle_beta                       90
_cell_angle_gamma                      90
_space_group_name_H-M_alt              'P 1'
_space_group_IT_number                 1

loop_
_space_group_symop_operation_xyz
   'x, y, z'

loop_
   _atom_site_label
   _atom_site_occupancy
   _atom_site_fract_x
   _atom_site_fract_y
   _atom_site_fract_z
   _atom_site_adp_type
   _atom_site_B_iso_or_equiv
   _atom_site_type_symbol
   C1         1.0     0.883018      0.055693      0.962851     Biso  1.000000 C
   C2         1.0     0.116982      0.944307      0.037149     Biso  1.000000 C
   C3         1.0     0.616982      0.555693      0.537149     Biso  1.000000 C
   C4         1.0     0.383018      0.444307      0.462851     Biso  1.000000 C
   H1         1.0     0.801926      0.181003      0.128164     Biso  1.000000 H
   H2         1.0     0.198074      0.818997      0.871836     Biso  1.000000 H
   H3         1.0     0.698074      0.681003      0.371836     Biso  1.000000 H
   H4         1.0     0.301926      0.318997      0.628164     Biso  1.000000 H
   H5         1.0     0.763040      0.026371      0.734157     Biso  1.000000 H
   H6         1.0     0.236960      0.973629      0.265843     Biso  1.000000 H
   H7         1.0     0.736960      0.526371      0.765843     Biso  1.000000 H
   H8         1.0     0.263040      0.473629      0.234157     Biso  1.000000 H
