#======================================================================

# CRYSTAL DATA

#----------------------------------------------------------------------

data_VESTA_phase_1


_chemical_name_common                  'methane-high                          '
_cell_length_a                         11.04686
_cell_length_b                         7.72692
_cell_length_c                         7.72211
_cell_angle_alpha                      90
_cell_angle_beta                       90
_cell_angle_gamma                      90
_space_group_name_H-M_alt              'P 1'
_space_group_IT_number                 1

loop_
_space_group_symop_operation_xyz
   'x, y, z'

loop_
   _atom_site_label
   _atom_site_occupancy
   _atom_site_fract_x
   _atom_site_fract_y
   _atom_site_fract_z
   _atom_site_adp_type
   _atom_site_B_iso_or_equiv
   _atom_site_type_symbol
   H1         1.0     0.806994      0.589218      0.927575     Biso  1.000000 H
   H2         1.0     0.193006      0.410782      0.072425     Biso  1.000000 H
   H3         1.0     0.193006      0.910782      0.427575     Biso  1.000000 H
   H4         1.0     0.806994      0.089218      0.572425     Biso  1.000000 H
   H5         1.0     0.193006      0.089218      0.572425     Biso  1.000000 H
   H6         1.0     0.806994      0.910782      0.427575     Biso  1.000000 H
   H7         1.0     0.806994      0.410782      0.072425     Biso  1.000000 H
   H8         1.0     0.193006      0.589218      0.927575     Biso  1.000000 H
   H9         1.0     0.306994      0.089218      0.927575     Biso  1.000000 H
   H10        1.0     0.693006      0.910782      0.072425     Biso  1.000000 H
   H11        1.0     0.693006      0.410782      0.427575     Biso  1.000000 H
   H12        1.0     0.306994      0.589218      0.572425     Biso  1.000000 H
   H13        1.0     0.693006      0.589218      0.572425     Biso  1.000000 H
   H14        1.0     0.306994      0.410782      0.427575     Biso  1.000000 H
   H15        1.0     0.306994      0.910782      0.072425     Biso  1.000000 H
   H16        1.0     0.693006      0.089218      0.927575     Biso  1.000000 H
   H17        1.0     0.691688      0.574112      0.088846     Biso  1.000000 H
   H18        1.0     0.308312      0.425888      0.911154     Biso  1.000000 H
   H19        1.0     0.308312      0.925888      0.588846     Biso  1.000000 H
   H20        1.0     0.691688      0.074112      0.411154     Biso  1.000000 H
   H21        1.0     0.308312      0.074112      0.411154     Biso  1.000000 H
   H22        1.0     0.691688      0.925888      0.588846     Biso  1.000000 H
   H23        1.0     0.691688      0.425888      0.911154     Biso  1.000000 H
   H24        1.0     0.308312      0.574112      0.088846     Biso  1.000000 H
   H25        1.0     0.191688      0.074112      0.088846     Biso  1.000000 H
   H26        1.0     0.808312      0.925888      0.911154     Biso  1.000000 H
   H27        1.0     0.808312      0.425888      0.588846     Biso  1.000000 H
   H28        1.0     0.191688      0.574112      0.411154     Biso  1.000000 H
   H29        1.0     0.808312      0.574112      0.411154     Biso  1.000000 H
   H30        1.0     0.191688      0.425888      0.588846     Biso  1.000000 H
   H31        1.0     0.191688      0.925888      0.911154     Biso  1.000000 H
   H32        1.0     0.808312      0.074112      0.088846     Biso  1.000000 H
   H33        1.0     0.085191      0.798907      0.188424     Biso  1.000000 H
   H34        1.0     0.914809      0.201093      0.811576     Biso  1.000000 H
   H35        1.0     0.914809      0.701093      0.688424     Biso  1.000000 H
   H36        1.0     0.085191      0.298907      0.311576     Biso  1.000000 H
   H37        1.0     0.914809      0.298907      0.311576     Biso  1.000000 H
   H38        1.0     0.085191      0.701093      0.688424     Biso  1.000000 H
   H39        1.0     0.085191      0.201093      0.811576     Biso  1.000000 H
   H40        1.0     0.914809      0.798907      0.188424     Biso  1.000000 H
   H41        1.0     0.585191      0.298907      0.188424     Biso  1.000000 H
   H42        1.0     0.414809      0.701093      0.811576     Biso  1.000000 H
   H43        1.0     0.414809      0.201093      0.688424     Biso  1.000000 H
   H44        1.0     0.585191      0.798907      0.311576     Biso  1.000000 H
   H45        1.0     0.414809      0.798907      0.311576     Biso  1.000000 H
   H46        1.0     0.585191      0.201093      0.688424     Biso  1.000000 H
   H47        1.0     0.585191      0.701093      0.811576     Biso  1.000000 H
   H48        1.0     0.414809      0.298907      0.188424     Biso  1.000000 H
   H49        1.0     0.000000      0.589567      0.207983     Biso  1.000000 H
   H50        1.0     0.000000      0.410433      0.792017     Biso  1.000000 H
   H51        1.0     0.000000      0.910433      0.707983     Biso  1.000000 H
   H52        1.0     0.000000      0.089567      0.292017     Biso  1.000000 H
   H53        1.0     0.500000      0.089567      0.207983     Biso  1.000000 H
   H54        1.0     0.500000      0.910433      0.792017     Biso  1.000000 H
   H55        1.0     0.500000      0.410433      0.707983     Biso  1.000000 H
   H56        1.0     0.500000      0.589567      0.292017     Biso  1.000000 H
   C1         1.0     0.000000      0.729508      0.196722     Biso  1.000000 C
   C2         1.0     0.000000      0.270492      0.803278     Biso  1.000000 C
   C3         1.0     0.000000      0.770492      0.696722     Biso  1.000000 C
   C4         1.0     0.000000      0.229508      0.303278     Biso  1.000000 C
   C5         1.0     0.500000      0.229508      0.196722     Biso  1.000000 C
   C6         1.0     0.500000      0.770492      0.803278     Biso  1.000000 C
   C7         1.0     0.500000      0.270492      0.696722     Biso  1.000000 C
   C8         1.0     0.500000      0.729508      0.303278     Biso  1.000000 C
   C9         1.0     0.748938      0.500000     -0.000000     Biso  1.000000 C
   C10        1.0     0.251062      0.500000     -0.000000     Biso  1.000000 C
   C11        1.0     0.251062     -0.000000      0.500000     Biso  1.000000 C
   C12        1.0     0.748938     -0.000000      0.500000     Biso  1.000000 C
   C13        1.0     0.248938     -0.000000     -0.000000     Biso  1.000000 C
   C14        1.0     0.751062     -0.000000     -0.000000     Biso  1.000000 C
   C15        1.0     0.751062      0.500000      0.500000     Biso  1.000000 C
   C16        1.0     0.248938      0.500000      0.500000     Biso  1.000000 C
