#======================================================================

# CRYSTAL DATA

#----------------------------------------------------------------------

data_VESTA_phase_1


_chemical_name_common                  'C2 H4                                 '
_cell_length_a                         4.59503
_cell_length_b                         6.09526
_cell_length_c                         3.90625
_cell_angle_alpha                      90
_cell_angle_beta                       90
_cell_angle_gamma                      90
_space_group_name_H-M_alt              'P 1'
_space_group_IT_number                 1

loop_
_space_group_symop_operation_xyz
   'x, y, z'

loop_
   _atom_site_label
   _atom_site_occupancy
   _atom_site_fract_x
   _atom_site_fract_y
   _atom_site_fract_z
   _atom_site_adp_type
   _atom_site_B_iso_or_equiv
   _atom_site_type_symbol
   C1         1.0     0.880580      0.057029      0.962512     Biso  1.000000 C
   C2         1.0     0.119420      0.942971      0.037488     Biso  1.000000 C
   C3         1.0     0.619420      0.557029      0.537488     Biso  1.000000 C
   C4         1.0     0.380580      0.442971      0.462512     Biso  1.000000 C
   H1         1.0     0.798000      0.185020      0.131662     Biso  1.000000 H
   H2         1.0     0.202000      0.814980      0.868338     Biso  1.000000 H
   H3         1.0     0.702000      0.685020      0.368338     Biso  1.000000 H
   H4         1.0     0.298000      0.314980      0.631662     Biso  1.000000 H
   H5         1.0     0.758430      0.026483      0.728185     Biso  1.000000 H
   H6         1.0     0.241570      0.973517      0.271815     Biso  1.000000 H
   H7         1.0     0.741570      0.526483      0.771815     Biso  1.000000 H
   H8         1.0     0.258430      0.473517      0.228185     Biso  1.000000 H
