#======================================================================

# CRYSTAL DATA

#----------------------------------------------------------------------

data_VESTA_phase_1


_chemical_name_common                  'C2                                    '
_cell_length_a                         4.28251
_cell_length_b                         5.68070
_cell_length_c                         3.64057
_cell_angle_alpha                      90
_cell_angle_beta                       90
_cell_angle_gamma                      90
_space_group_name_H-M_alt              'P 1'
_space_group_IT_number                 1

loop_
_space_group_symop_operation_xyz
   'x, y, z'

loop_
   _atom_site_label
   _atom_site_occupancy
   _atom_site_fract_x
   _atom_site_fract_y
   _atom_site_fract_z
   _atom_site_adp_type
   _atom_site_B_iso_or_equiv
   _atom_site_type_symbol
   C1         1.0     0.871906      0.061038      0.960062     Biso  1.000000 C
   C2         1.0     0.128095      0.938962      0.039938     Biso  1.000000 C
   C3         1.0     0.628094      0.561038      0.539938     Biso  1.000000 C
   C4         1.0     0.371906      0.438962      0.460062     Biso  1.000000 C
   H1         1.0     0.782679      0.198403      0.140780     Biso  1.000000 H
   H2         1.0     0.217321      0.801597      0.859220     Biso  1.000000 H
   H3         1.0     0.717321      0.698403      0.359220     Biso  1.000000 H
   H4         1.0     0.282679      0.301597      0.640780     Biso  1.000000 H
   H5         1.0     0.740710      0.028559      0.709396     Biso  1.000000 H
   H6         1.0     0.259290      0.971441      0.290604     Biso  1.000000 H
   H7         1.0     0.759290      0.528559      0.790604     Biso  1.000000 H
   H8         1.0     0.240710      0.471441      0.209396     Biso  1.000000 H
