#======================================================================

# CRYSTAL DATA

#----------------------------------------------------------------------

data_VESTA_phase_1


_chemical_name_common                  'C2                                    '
_cell_length_a                         3.99009
_cell_length_b                         5.29282
_cell_length_c                         3.39199
_cell_angle_alpha                      90
_cell_angle_beta                       90
_cell_angle_gamma                      90
_space_group_name_H-M_alt              'P 1'
_space_group_IT_number                 1

loop_
_space_group_symop_operation_xyz
   'x, y, z'

loop_
   _atom_site_label
   _atom_site_occupancy
   _atom_site_fract_x
   _atom_site_fract_y
   _atom_site_fract_z
   _atom_site_adp_type
   _atom_site_B_iso_or_equiv
   _atom_site_type_symbol
   C1         1.0     0.862783      0.064799     -0.043072     Biso  1.000000 C
   C2         1.0     0.137217      0.935201      0.043072     Biso  1.000000 C
   C3         1.0     0.637217      0.564799      0.543072     Biso  1.000000 C
   C4         1.0     0.362783      0.435201      0.456928     Biso  1.000000 C
   H1         1.0     0.766990      0.211458      0.149123     Biso  1.000000 H
   H2         1.0     0.233010      0.788542      0.850877     Biso  1.000000 H
   H3         1.0     0.733010      0.711458      0.350877     Biso  1.000000 H
   H4         1.0     0.266990      0.288542      0.649123     Biso  1.000000 H
   H5         1.0     0.722116      0.030284      0.689131     Biso  1.000000 H
   H6         1.0     0.277884      0.969716      0.310869     Biso  1.000000 H
   H7         1.0     0.777884      0.530284      0.810869     Biso  1.000000 H
   H8         1.0     0.222116      0.469716      0.189131     Biso  1.000000 H
